data_image0
_chemical_formula_structural       Zn8O26C56H6O2H4O2H2O2H4O2H2O2H2O2H2O2H6
_chemical_formula_sum              "Zn8 O40 C56 H28"
_cell_length_a       12.5945
_cell_length_b       12.5945
_cell_length_c       16.1203
_cell_angle_alpha    87.1263
_cell_angle_beta     92.8768
_cell_angle_gamma    89.9869

_space_group_name_H-M_alt    "P 1"
_space_group_IT_number       1

loop_
  _space_group_symop_operation_xyz
  'x, y, z'

loop_
  _atom_site_type_symbol
  _atom_site_label
  _atom_site_symmetry_multiplicity
  _atom_site_fract_x
  _atom_site_fract_y
  _atom_site_fract_z
  _atom_site_occupancy
  Zn  Zn1       1.0  0.54557  0.40328  0.52848  1.0000
  Zn  Zn2       1.0  0.04557  0.90328  0.02848  1.0000
  Zn  Zn3       1.0  0.37660  0.39437  0.66788  1.0000
  Zn  Zn4       1.0  0.87660  0.89437  0.16788  1.0000
  Zn  Zn5       1.0  0.55458  0.57225  0.66789  1.0000
  Zn  Zn6       1.0  0.05458  0.07225  0.16789  1.0000
  Zn  Zn7       1.0  0.36765  0.58130  0.52853  1.0000
  Zn  Zn8       1.0  0.86765  0.08130  0.02853  1.0000
  O   O1        1.0  0.46110  0.48780  0.59820  1.0000
  O   O2        1.0  0.96110  0.98780  0.09820  1.0000
  O   O3        1.0  0.52313  0.25316  0.54695  1.0000
  O   O4        1.0  0.02312  0.75316  0.04695  1.0000
  O   O5        1.0  0.40772  0.41045  0.78455  1.0000
  O   O6        1.0  0.90772  0.91045  0.28455  1.0000
  O   O7        1.0  0.70233  0.54978  0.64938  1.0000
  O   O8        1.0  0.20233  0.04978  0.14938  1.0000
  O   O9        1.0  0.39898  0.24661  0.64937  1.0000
  O   O10       1.0  0.89898  0.74661  0.14937  1.0000
  O   O11       1.0  0.69571  0.42564  0.54696  1.0000
  O   O12       1.0  0.19570  0.92564  0.04696  1.0000
  O   O13       1.0  0.53848  0.54114  0.78455  1.0000
  O   O14       1.0  0.03848  0.04114  0.28455  1.0000
  O   O15       1.0  0.52981  0.72240  0.64943  1.0000
  O   O16       1.0  0.02981  0.22240  0.14943  1.0000
  O   O17       1.0  0.38373  0.56520  0.41186  1.0000
  O   O18       1.0  0.88373  0.06520  0.91186  1.0000
  O   O19       1.0  0.39247  0.72905  0.54704  1.0000
  O   O20       1.0  0.89247  0.22905  0.04704  1.0000
  O   O21       1.0  0.51445  0.43441  0.41183  1.0000
  O   O22       1.0  0.01445  0.93441  0.91183  1.0000
  O   O23       1.0  0.22646  0.41923  0.64941  1.0000
  O   O24       1.0  0.72646  0.91923  0.14941  1.0000
  O   O25       1.0  0.21989  0.55656  0.54703  1.0000
  O   O26       1.0  0.71989  0.05656  0.04703  1.0000
  C   C1        1.0  0.46114  0.76434  0.59824  1.0000
  C   C2        1.0  0.96114  0.26434  0.09824  1.0000
  C   C3        1.0  0.46114  0.88265  0.59824  1.0000
  C   C4        1.0  0.96114  0.38265  0.09824  1.0000
  C   C5        1.0  0.53593  0.94832  0.65382  1.0000
  C   C6        1.0  0.03593  0.44832  0.15382  1.0000
  C   C7        1.0  0.44018  0.01781  0.67433  1.0000
  C   C8        1.0  0.94018  0.51781  0.17433  1.0000
  C   C9        1.0  0.55686  0.02396  0.57773  1.0000
  C   C10       1.0  0.05686  0.52396  0.07773  1.0000
  C   C11       1.0  0.36534  0.95057  0.61878  1.0000
  C   C12       1.0  0.86534  0.45057  0.11878  1.0000
  C   C13       1.0  0.48208  0.95672  0.52214  1.0000
  C   C14       1.0  0.98208  0.45672  0.02214  1.0000
  C   C15       1.0  0.38626  0.02618  0.54262  1.0000
  C   C16       1.0  0.88626  0.52618  0.04262  1.0000
  C   C17       1.0  0.18456  0.48788  0.59821  1.0000
  C   C18       1.0  0.68456  0.98788  0.09821  1.0000
  C   C19       1.0  0.06625  0.48782  0.59818  1.0000
  C   C20       1.0  0.56625  0.98782  0.09818  1.0000
  C   C21       1.0  0.92262  0.56246  0.54253  1.0000
  C   C22       1.0  0.42262  0.06246  0.04253  1.0000
  C   C23       1.0  0.99219  0.46675  0.52207  1.0000
  C   C24       1.0  0.49220  0.96675  0.02207  1.0000
  C   C25       1.0  0.99824  0.58352  0.61861  1.0000
  C   C26       1.0  0.49824  0.08352  0.11861  1.0000
  C   C27       1.0  0.92503  0.39189  0.57765  1.0000
  C   C28       1.0  0.42504  0.89189  0.07765  1.0000
  C   C29       1.0  0.93108  0.50873  0.67423  1.0000
  C   C30       1.0  0.43108  0.00873  0.17423  1.0000
  C   C31       1.0  0.00062  0.41295  0.65380  1.0000
  C   C32       1.0  0.50062  0.91295  0.15380  1.0000
  C   C33       1.0  0.73871  0.48770  0.59817  1.0000
  C   C34       1.0  0.23872  0.98769  0.09817  1.0000
  C   C35       1.0  0.85702  0.48765  0.59815  1.0000
  C   C36       1.0  0.35702  0.98765  0.09815  1.0000
  C   C37       1.0  0.44709  0.50181  0.38075  1.0000
  C   C38       1.0  0.94709  0.00181  0.88075  1.0000
  C   C39       1.0  0.44112  0.50778  0.28808  1.0000
  C   C40       1.0  0.94112  0.00778  0.78808  1.0000
  C   C41       1.0  0.46107  0.21018  0.59817  1.0000
  C   C42       1.0  0.96107  0.71018  0.09817  1.0000
  C   C43       1.0  0.46112  0.09188  0.59820  1.0000
  C   C44       1.0  0.96112  0.59188  0.09820  1.0000
  C   C45       1.0  0.43024  0.51872  0.11843  1.0000
  C   C46       1.0  0.93024  0.01872  0.61843  1.0000
  C   C47       1.0  0.49227  0.45667  0.07711  1.0000
  C   C48       1.0  0.99227  0.95667  0.57711  1.0000
  C   C49       1.0  0.48622  0.46276  0.98271  1.0000
  C   C50       1.0  0.98622  0.96276  0.48271  1.0000
  C   C51       1.0  0.43629  0.51264  0.21284  1.0000
  C   C52       1.0  0.93629  0.01264  0.71284  1.0000
  C   C53       1.0  0.47513  0.47378  0.81480  1.0000
  C   C54       1.0  0.97513  0.97378  0.31480  1.0000
  C   C55       1.0  0.48140  0.46761  0.90746  1.0000
  C   C56       1.0  0.98140  0.96761  0.40746  1.0000
  H   H1        1.0  0.42245  0.04480  0.73867  1.0000
  H   H2        1.0  0.92245  0.54480  0.23866  1.0000
  H   H3        1.0  0.37259  0.57641  0.08290  1.0000
  H   H4        1.0  0.87259  0.07641  0.58290  1.0000
  H   H5        1.0  0.28436  0.91851  0.63619  1.0000
  H   H6        1.0  0.78436  0.41851  0.13619  1.0000
  O   O27       1.0  0.61962  0.90317  0.71615  1.0000
  O   O28       1.0  0.11962  0.40317  0.21615  1.0000
  H   H7        1.0  0.60196  0.92749  0.77925  1.0000
  H   H8        1.0  0.10197  0.42749  0.27925  1.0000
  H   H9        1.0  0.03456  0.34969  0.70085  1.0000
  H   H10       1.0  0.53456  0.84969  0.20085  1.0000
  O   O29       1.0  0.30238  0.07107  0.48034  1.0000
  O   O30       1.0  0.80238  0.57107  0.98034  1.0000
  H   H11       1.0  0.22304  0.04148  0.49755  1.0000
  H   H12       1.0  0.72304  0.54148  0.99755  1.0000
  O   O31       1.0  0.50559  0.92088  0.43696  1.0000
  O   O32       1.0  0.00559  0.42088  0.93696  1.0000
  H   H13       1.0  0.51808  0.99152  0.39462  1.0000
  H   H14       1.0  0.01808  0.49152  0.89462  1.0000
  H   H15       1.0  0.63781  0.05620  0.56042  1.0000
  H   H16       1.0  0.13781  0.55620  0.06042  1.0000
  O   O33       1.0  0.87739  0.64607  0.48016  1.0000
  O   O34       1.0  0.37739  0.14607  0.98016  1.0000
  H   H17       1.0  0.90174  0.62838  0.41707  1.0000
  H   H18       1.0  0.40174  0.12838  0.91707  1.0000
  O   O35       1.0  0.02799  0.44322  0.43687  1.0000
  O   O36       1.0  0.52799  0.94322  0.93687  1.0000
  H   H19       1.0  0.99667  0.50536  0.39079  1.0000
  H   H20       1.0  0.49667  0.00535  0.89079  1.0000
  O   O37       1.0  0.88268  0.28456  0.55464  1.0000
  O   O38       1.0  0.38267  0.78456  0.05464  1.0000
  H   H21       1.0  0.79456  0.28535  0.55478  1.0000
  H   H22       1.0  0.29456  0.78535  0.05477  1.0000
  O   O39       1.0  0.89526  0.53229  0.75941  1.0000
  O   O40       1.0  0.39526  0.03229  0.25941  1.0000
  H   H23       1.0  0.92455  0.61188  0.77624  1.0000
  H   H24       1.0  0.42455  0.11188  0.27624  1.0000
  H   H25       1.0  0.54992  0.39898  0.11264  1.0000
  H   H26       1.0  0.04992  0.89898  0.61264  1.0000
  H   H27       1.0  0.03036  0.66453  0.63589  1.0000
  H   H28       1.0  0.53036  0.16453  0.13589  1.0000
