data_image0
_chemical_formula_structural       Zn4O13C26H3NH2NH3NH3NH6NH2NH2NH2
_chemical_formula_sum              "Zn4 O13 C26 H23 N7"
_cell_length_a       12.6453
_cell_length_b       16.1205
_cell_length_c       16.1203
_cell_angle_alpha    89.8719
_cell_angle_beta     92.8768
_cell_angle_gamma    92.8866

_space_group_name_H-M_alt    "P 1"
_space_group_IT_number       1

loop_
  _space_group_symop_operation_xyz
  'x, y, z'

loop_
  _atom_site_type_symbol
  _atom_site_label
  _atom_site_symmetry_multiplicity
  _atom_site_fract_x
  _atom_site_fract_y
  _atom_site_fract_z
  _atom_site_occupancy
  Zn  Zn1       1.0  0.46292  0.75252  0.46540  1.0000
  Zn  Zn2       1.0  0.29416  0.74555  0.60445  1.0000
  Zn  Zn3       1.0  0.48083  0.88453  0.61149  1.0000
  Zn  Zn4       1.0  0.29513  0.89160  0.47248  1.0000
  O   O1        1.0  0.38326  0.81855  0.53846  1.0000
  O   O2        1.0  0.43263  0.63523  0.47794  1.0000
  O   O3        1.0  0.32601  0.75812  0.72175  1.0000
  O   O4        1.0  0.62680  0.86697  0.59209  1.0000
  O   O5        1.0  0.30864  0.63011  0.58010  1.0000
  O   O6        1.0  0.61364  0.76999  0.48477  1.0000
  O   O7        1.0  0.46316  0.86022  0.72692  1.0000
  O   O8        1.0  0.46410  0.00183  0.59896  1.0000
  O   O9        1.0  0.31030  0.87902  0.35518  1.0000
  O   O10       1.0  0.32767  0.00703  0.49683  1.0000
  O   O11       1.0  0.43357  0.77684  0.34998  1.0000
  O   O12       1.0  0.14594  0.76497  0.58696  1.0000
  O   O13       1.0  0.14666  0.87227  0.49001  1.0000
  C   C1        1.0  0.39794  0.03460  0.54942  1.0000
  C   C2        1.0  0.40419  0.12703  0.55409  1.0000
  C   C3        1.0  0.10784  0.81861  0.53847  1.0000
  C   C4        1.0  0.99000  0.81856  0.53845  1.0000
  C   C5        1.0  0.37005  0.82950  0.32156  1.0000
  C   C6        1.0  0.36442  0.83416  0.22913  1.0000
  C   C7        1.0  0.82281  0.88581  0.47724  1.0000
  C   C8        1.0  0.94541  0.88612  0.47746  1.0000
  C   C9        1.0  0.95239  0.83784  0.62728  1.0000
  C   C10       1.0  0.82979  0.83825  0.62691  1.0000
  C   C11       1.0  0.81556  0.73161  0.51151  1.0000
  C   C12       1.0  0.93808  0.73225  0.50962  1.0000
  C   C13       1.0  0.65976  0.81847  0.53842  1.0000
  C   C14       1.0  0.77758  0.81843  0.53841  1.0000
  C   C15       1.0  0.36852  0.60165  0.52745  1.0000
  C   C16       1.0  0.36225  0.50922  0.52276  1.0000
  C   C17       1.0  0.41563  0.29626  0.56262  1.0000
  C   C18       1.0  0.35081  0.34000  0.51424  1.0000
  C   C19       1.0  0.35718  0.43416  0.51898  1.0000
  C   C20       1.0  0.40927  0.20209  0.55788  1.0000
  C   C21       1.0  0.35416  0.84271  0.05991  1.0000
  C   C22       1.0  0.41266  0.79423  0.01614  1.0000
  C   C23       1.0  0.40696  0.79898  0.92198  1.0000
  C   C24       1.0  0.35987  0.83795  0.15408  1.0000
  C   C25       1.0  0.39650  0.80760  0.75451  1.0000
  C   C26       1.0  0.40241  0.80277  0.84693  1.0000
  H   H1        1.0  0.78841  0.87441  0.41130  1.0000
  H   H2        1.0  0.98850  0.90049  0.64986  1.0000
  H   H3        1.0  0.29980  0.88778  0.02666  1.0000
  N   N1        1.0  0.49545  0.34033  0.62221  1.0000
  H   H4        1.0  0.48171  0.32228  0.68090  1.0000
  H   H5        1.0  0.56935  0.32590  0.60839  1.0000
  N   N2        1.0  0.99094  0.77465  0.68957  1.0000
  H   H6        1.0  0.96185  0.71742  0.67235  1.0000
  H   H7        1.0  0.07097  0.77600  0.69185  1.0000
  H   H8        1.0  0.77940  0.71316  0.44759  1.0000
  N   N3        1.0  0.99121  0.97150  0.50154  1.0000
  H   H9        1.0  0.93175  0.00907  0.51205  1.0000
  H   H10       1.0  0.03847  0.96737  0.55363  1.0000
  H   H11       1.0  0.97057  0.87458  0.41173  1.0000
  N   N4        1.0  0.27095  0.29593  0.45467  1.0000
  H   H12       1.0  0.22858  0.33824  0.42304  1.0000
  H   H13       1.0  0.30928  0.26181  0.41434  1.0000
  H   H14       1.0  0.46703  0.74915  0.04939  1.0000
  H   H15       1.0  0.96799  0.67976  0.55057  1.0000
  H   H16       1.0  0.96207  0.71763  0.44422  1.0000
  H   H17       1.0  0.80663  0.90158  0.64918  1.0000
  N   N5        1.0  0.78891  0.97067  0.50103  1.0000
  H   H18       1.0  0.70896  0.97092  0.49812  1.0000
  H   H19       1.0  0.81683  0.98430  0.55946  1.0000
  N   N6        1.0  0.77668  0.66519  0.57044  1.0000
  H   H20       1.0  0.83933  0.63760  0.59785  1.0000
  H   H21       1.0  0.73465  0.69122  0.61431  1.0000
  N   N7        1.0  0.79051  0.77576  0.68966  1.0000
  H   H22       1.0  0.85284  0.74807  0.71744  1.0000
  H   H23       1.0  0.75083  0.80501  0.73288  1.0000
