data_image0
_chemical_formula_structural       Zn4O13C48H2NH2NH3NH2NH3NH2NH2NH2NH4NH2NH3NH2NH4NH2
_chemical_formula_sum              "Zn4 O13 C48 H35 N13"
_cell_length_a       17.6391
_cell_length_b       16.1205
_cell_length_c       17.6393
_cell_angle_alpha    104.591
_cell_angle_beta     65.6653
_cell_angle_gamma    104.623

_space_group_name_H-M_alt    "P 1"
_space_group_IT_number       1

loop_
  _space_group_symop_operation_xyz
  'x, y, z'

loop_
  _atom_site_type_symbol
  _atom_site_label
  _atom_site_symmetry_multiplicity
  _atom_site_fract_x
  _atom_site_fract_y
  _atom_site_fract_z
  _atom_site_occupancy
  Zn  Zn1       1.0  0.34630  0.79930  0.27073  1.0000
  Zn  Zn2       1.0  0.31363  0.68130  0.40385  1.0000
  Zn  Zn3       1.0  0.18061  0.79932  0.43645  1.0000
  Zn  Zn4       1.0  0.20178  0.63370  0.29210  1.0000
  O   O1        1.0  0.26058  0.72841  0.35078  1.0000
  O   O2        1.0  0.45812  0.80356  0.26580  1.0000
  O   O3        1.0  0.27345  0.71689  0.52430  1.0000
  O   O4        1.0  0.20740  0.91801  0.41917  1.0000
  O   O5        1.0  0.43411  0.71687  0.36361  1.0000
  O   O6        1.0  0.32913  0.91800  0.29741  1.0000
  O   O7        1.0  0.17572  0.80360  0.54825  1.0000
  O   O8        1.0  0.06727  0.75744  0.43989  1.0000
  O   O9        1.0  0.24348  0.63574  0.17314  1.0000
  O   O10       1.0  0.08282  0.63576  0.33383  1.0000
  O   O11       1.0  0.34966  0.75740  0.15744  1.0000
  O   O12       1.0  0.29397  0.55630  0.38433  1.0000
  O   O13       1.0  0.21180  0.52132  0.30222  1.0000
  C   C1        1.0  0.04493  0.69144  0.39271  1.0000
  C   C2        1.0  0.95267  0.67560  0.41063  1.0000
  C   C3        1.0  0.81014  0.60824  0.48689  1.0000
  C   C4        1.0  0.89682  0.62313  0.47005  1.0000
  C   C5        1.0  0.92185  0.71320  0.36803  1.0000
  C   C6        1.0  0.83516  0.69831  0.38487  1.0000
  C   C7        1.0  0.77931  0.64583  0.44429  1.0000
  C   C8        1.0  0.80434  0.73590  0.34227  1.0000
  C   C9        1.0  0.71766  0.72102  0.35910  1.0000
  C   C10       1.0  0.66180  0.66855  0.41853  1.0000
  C   C11       1.0  0.69263  0.63095  0.46113  1.0000
  C   C12       1.0  0.86019  0.78839  0.28285  1.0000
  C   C13       1.0  0.82937  0.82598  0.24025  1.0000
  C   C14       1.0  0.74269  0.81110  0.25708  1.0000
  C   C15       1.0  0.68683  0.75862  0.31651  1.0000
  C   C16       1.0  0.71186  0.84869  0.21448  1.0000
  C   C17       1.0  0.62518  0.83381  0.23132  1.0000
  C   C18       1.0  0.60015  0.74374  0.33334  1.0000
  C   C19       1.0  0.25167  0.50803  0.34203  1.0000
  C   C20       1.0  0.24793  0.41377  0.33825  1.0000
  C   C21       1.0  0.24113  0.24118  0.33132  1.0000
  C   C22       1.0  0.28018  0.21650  0.37021  1.0000
  C   C23       1.0  0.27639  0.12046  0.36635  1.0000
  C   C24       1.0  0.24491  0.33722  0.33517  1.0000
  C   C25       1.0  0.47707  0.76552  0.30868  1.0000
  C   C26       1.0  0.56933  0.78133  0.29075  1.0000
  C   C27       1.0  0.30258  0.69126  0.13433  1.0000
  C   C28       1.0  0.32047  0.67542  0.04210  1.0000
  C   C29       1.0  0.26955  0.94964  0.35954  1.0000
  C   C30       1.0  0.27338  0.04392  0.36328  1.0000
  C   C31       1.0  0.12495  0.84905  0.80106  1.0000
  C   C32       1.0  0.14179  0.83416  0.71438  1.0000
  C   C33       1.0  0.24354  0.74388  0.68947  1.0000
  C   C34       1.0  0.22672  0.75876  0.77614  1.0000
  C   C35       1.0  0.16742  0.81135  0.83193  1.0000
  C   C36       1.0  0.26918  0.72106  0.80701  1.0000
  C   C37       1.0  0.25236  0.73595  0.89368  1.0000
  C   C38       1.0  0.19307  0.78853  0.94948  1.0000
  C   C39       1.0  0.15060  0.82623  0.91860  1.0000
  C   C40       1.0  0.32848  0.66847  0.75122  1.0000
  C   C41       1.0  0.37094  0.63078  0.78209  1.0000
  C   C42       1.0  0.35412  0.64566  0.86876  1.0000
  C   C43       1.0  0.29483  0.69824  0.92456  1.0000
  C   C44       1.0  0.39659  0.60796  0.89964  1.0000
  C   C45       1.0  0.37977  0.62284  0.98631  1.0000
  C   C46       1.0  0.27800  0.71312  0.01123  1.0000
  C   C47       1.0  0.21879  0.76548  0.56638  1.0000
  C   C48       1.0  0.20107  0.78158  0.65860  1.0000
  H   H1        1.0  0.59122  0.65645  0.43225  1.0000
  H   H2        1.0  0.31646  0.26750  0.40640  1.0000
  N   N1        1.0  0.77211  0.90528  0.15038  1.0000
  H   H3        1.0  0.80313  0.95659  0.17861  1.0000
  H   H4        1.0  0.81408  0.87025  0.10365  1.0000
  N   N2        1.0  0.21405  0.76984  0.07141  1.0000
  H   H5        1.0  0.20984  0.77354  0.13099  1.0000
  H   H6        1.0  0.23237  0.83003  0.05614  1.0000
  H   H7        1.0  0.34217  0.65636  0.68065  1.0000
  N   N3        1.0  0.19307  0.17364  0.28338  1.0000
  H   H8        1.0  0.19714  0.11362  0.28739  1.0000
  H   H9        1.0  0.13188  0.18106  0.30848  1.0000
  N   N4        1.0  0.09598  0.87481  0.68108  1.0000
  H   H10       1.0  0.10839  0.94021  0.69604  1.0000
  H   H11       1.0  0.11566  0.85732  0.61772  1.0000
  H   H12       1.0  0.64716  0.58821  0.50951  1.0000
  N   N5        1.0  0.17492  0.80459  0.04295  1.0000
  H   H13       1.0  0.13092  0.84362  0.07361  1.0000
  H   H14       1.0  0.15329  0.74734  0.06443  1.0000
  N   N6        1.0  0.53990  0.68715  0.39745  1.0000
  H   H15       1.0  0.48032  0.68343  0.40165  1.0000
  H   H16       1.0  0.55509  0.62695  0.37928  1.0000
  N   N7        1.0  0.74989  0.55163  0.55098  1.0000
  H   H17       1.0  0.78257  0.53006  0.57541  1.0000
  H   H18       1.0  0.70787  0.58662  0.59769  1.0000
  N   N8        1.0  0.30748  0.68715  0.62929  1.0000
  H   H19       1.0  0.31170  0.68344  0.56970  1.0000
  H   H20       1.0  0.36436  0.71312  0.63344  1.0000
  H   H21       1.0  0.93077  0.80050  0.26915  1.0000
  H   H22       1.0  0.96734  0.75593  0.31965  1.0000
  N   N9        1.0  0.08665  0.88295  0.97878  1.0000
  H   H23       1.0  0.06230  0.90458  0.94607  1.0000
  H   H24       1.0  0.03986  0.84802  0.02084  1.0000
  N   N10       1.0  0.06101  0.90577  0.86124  1.0000
  H   H25       1.0  0.03666  0.92740  0.82854  1.0000
  H   H26       1.0  0.01421  0.87083  0.90330  1.0000
  H   H27       1.0  0.87485  0.86871  0.19187  1.0000
  N   N11       1.0  0.46054  0.55124  0.83945  1.0000
  H   H28       1.0  0.51745  0.57717  0.84352  1.0000
  H   H29       1.0  0.44219  0.49104  0.85468  1.0000
  N   N12       1.0  0.93007  0.58258  0.51599  1.0000
  H   H30       1.0  0.88153  0.54708  0.55620  1.0000
  H   H31       1.0  0.97100  0.54366  0.47373  1.0000
  H   H32       1.0  0.41922  0.58796  0.73666  1.0000
  H   H33       1.0  0.41436  0.59215  0.01144  1.0000
  N   N13       1.0  0.59193  0.87436  0.18538  1.0000
  H   H34       1.0  0.64046  0.90986  0.14518  1.0000
  H   H35       1.0  0.56202  0.82702  0.15264  1.0000
