data_image0
_chemical_formula_structural       Zn8O26C76H6Cl2H10Cl2H4Cl4H4Cl4H2Cl2H2Cl4H2
_chemical_formula_sum              "Zn8 O26 C76 H30 Cl18"
_cell_length_a       14.9086
_cell_length_b       18.1014
_cell_length_c       14.9087
_cell_angle_alpha    93.2695
_cell_angle_beta     83.5925
_cell_angle_gamma    86.7273

_space_group_name_H-M_alt    "P 1"
_space_group_IT_number       1

loop_
  _space_group_symop_operation_xyz
  'x, y, z'

loop_
  _atom_site_type_symbol
  _atom_site_label
  _atom_site_symmetry_multiplicity
  _atom_site_fract_x
  _atom_site_fract_y
  _atom_site_fract_z
  _atom_site_occupancy
  Zn  Zn1       1.0  0.41325  0.61012  0.40850  1.0000
  Zn  Zn2       1.0  0.91325  0.11012  0.90850  1.0000
  Zn  Zn3       1.0  0.40439  0.49386  0.55987  1.0000
  Zn  Zn4       1.0  0.90439  0.99386  0.05986  1.0000
  Zn  Zn5       1.0  0.25316  0.62527  0.56856  1.0000
  Zn  Zn6       1.0  0.75316  0.12527  0.06856  1.0000
  Zn  Zn7       1.0  0.26182  0.49391  0.41727  1.0000
  Zn  Zn8       1.0  0.76182  0.99391  0.91727  1.0000
  O   O1        1.0  0.33316  0.55579  0.48855  1.0000
  O   O2        1.0  0.83316  0.05579  0.98855  1.0000
  O   O3        1.0  0.53874  0.58834  0.42127  1.0000
  O   O4        1.0  0.03874  0.08833  0.92127  1.0000
  O   O5        1.0  0.37700  0.51760  0.68768  1.0000
  O   O6        1.0  0.87700  0.01760  0.18768  1.0000
  O   O7        1.0  0.27447  0.72689  0.54730  1.0000
  O   O8        1.0  0.77447  0.22689  0.04730  1.0000
  O   O9        1.0  0.53223  0.50292  0.53248  1.0000
  O   O10       1.0  0.03223  0.00292  0.03248  1.0000
  O   O11       1.0  0.39209  0.71576  0.42970  1.0000
  O   O12       1.0  0.89209  0.21576  0.92970  1.0000
  O   O13       1.0  0.26588  0.61415  0.69407  1.0000
  O   O14       1.0  0.76588  0.11415  0.19407  1.0000
  O   O15       1.0  0.12764  0.61421  0.55580  1.0000
  O   O16       1.0  0.62764  0.11421  0.05580  1.0000
  O   O17       1.0  0.28925  0.50301  0.28944  1.0000
  O   O18       1.0  0.78925  0.00302  0.78944  1.0000
  O   O19       1.0  0.13401  0.51770  0.44465  1.0000
  O   O20       1.0  0.63401  0.01770  0.94465  1.0000
  O   O21       1.0  0.40050  0.58839  0.28300  1.0000
  O   O22       1.0  0.90050  0.08839  0.78300  1.0000
  O   O23       1.0  0.38540  0.39024  0.54098  1.0000
  O   O24       1.0  0.88540  0.89024  0.04098  1.0000
  O   O25       1.0  0.28066  0.39028  0.43621  1.0000
  O   O26       1.0  0.78066  0.89028  0.93621  1.0000
  C   C1        1.0  0.09798  0.56760  0.50212  1.0000
  C   C2        1.0  0.59798  0.06760  0.00212  1.0000
  C   C3        1.0  0.99738  0.57264  0.50790  1.0000
  C   C4        1.0  0.49737  0.07264  0.00790  1.0000
  C   C5        1.0  0.81499  0.48147  0.40318  1.0000
  C   C6        1.0  0.31499  0.98147  0.90318  1.0000
  C   C7        1.0  0.72047  0.48620  0.40861  1.0000
  C   C8        1.0  0.22046  0.98620  0.90861  1.0000
  C   C9        1.0  0.71379  0.58683  0.52419  1.0000
  C   C10       1.0  0.21379  0.08683  0.02419  1.0000
  C   C11       1.0  0.80832  0.58210  0.51876  1.0000
  C   C12       1.0  0.30831  0.08210  0.01876  1.0000
  C   C13       1.0  0.85892  0.52942  0.45825  1.0000
  C   C14       1.0  0.35892  0.02942  0.95825  1.0000
  C   C15       1.0  0.95345  0.52469  0.45283  1.0000
  C   C16       1.0  0.45345  0.02469  0.95283  1.0000
  C   C17       1.0  0.94677  0.62532  0.56840  1.0000
  C   C18       1.0  0.44677  0.12532  0.06840  1.0000
  C   C19       1.0  0.85224  0.63005  0.57383  1.0000
  C   C20       1.0  0.35224  0.13005  0.07383  1.0000
  C   C21       1.0  0.33303  0.36339  0.48858  1.0000
  C   C22       1.0  0.83303  0.86339  0.98858  1.0000
  C   C23       1.0  0.33307  0.28107  0.48856  1.0000
  C   C24       1.0  0.83307  0.78107  0.98856  1.0000
  C   C25       1.0  0.33327  0.98197  0.48850  1.0000
  C   C26       1.0  0.83327  0.48197  0.98850  1.0000
  C   C27       1.0  0.26754  0.01327  0.42240  1.0000
  C   C28       1.0  0.76754  0.51327  0.92240  1.0000
  C   C29       1.0  0.26719  0.09892  0.42264  1.0000
  C   C30       1.0  0.76719  0.59892  0.92264  1.0000
  C   C31       1.0  0.33317  0.13036  0.48853  1.0000
  C   C32       1.0  0.83317  0.63036  0.98853  1.0000
  C   C33       1.0  0.30184  0.10528  0.58541  1.0000
  C   C34       1.0  0.80184  0.60528  0.08541  1.0000
  C   C35       1.0  0.30141  0.01963  0.58502  1.0000
  C   C36       1.0  0.80141  0.51963  0.08502  1.0000
  C   C37       1.0  0.43043  0.00760  0.45855  1.0000
  C   C38       1.0  0.93043  0.50760  0.95855  1.0000
  C   C39       1.0  0.42999  0.09317  0.45649  1.0000
  C   C40       1.0  0.92999  0.59317  0.95649  1.0000
  C   C41       1.0  0.33311  0.21422  0.48855  1.0000
  C   C42       1.0  0.83311  0.71422  0.98855  1.0000
  C   C43       1.0  0.33332  0.89810  0.48848  1.0000
  C   C44       1.0  0.83332  0.39811  0.98848  1.0000
  C   C45       1.0  0.56925  0.54393  0.47492  1.0000
  C   C46       1.0  0.06925  0.04393  0.97492  1.0000
  C   C47       1.0  0.66986  0.53888  0.46912  1.0000
  C   C48       1.0  0.16986  0.03888  0.96912  1.0000
  C   C49       1.0  0.34683  0.54402  0.25246  1.0000
  C   C50       1.0  0.84683  0.04402  0.75246  1.0000
  C   C51       1.0  0.35265  0.53900  0.15185  1.0000
  C   C52       1.0  0.85265  0.03900  0.65185  1.0000
  C   C53       1.0  0.33331  0.74894  0.48849  1.0000
  C   C54       1.0  0.83331  0.24894  0.98849  1.0000
  C   C55       1.0  0.33337  0.83125  0.48847  1.0000
  C   C56       1.0  0.83337  0.33125  0.98847  1.0000
  C   C57       1.0  0.24788  0.63011  0.96945  1.0000
  C   C58       1.0  0.74788  0.13011  0.46945  1.0000
  C   C59       1.0  0.25335  0.62540  0.87492  1.0000
  C   C60       1.0  0.75335  0.12540  0.37492  1.0000
  C   C61       1.0  0.36906  0.52487  0.86825  1.0000
  C   C62       1.0  0.86906  0.02487  0.36825  1.0000
  C   C63       1.0  0.36359  0.52958  0.96278  1.0000
  C   C64       1.0  0.86359  0.02958  0.46279  1.0000
  C   C65       1.0  0.30300  0.58220  0.01338  1.0000
  C   C66       1.0  0.80300  0.08220  0.51338  1.0000
  C   C67       1.0  0.29753  0.58692  0.10791  1.0000
  C   C68       1.0  0.79753  0.08692  0.60791  1.0000
  C   C69       1.0  0.41324  0.48638  0.10125  1.0000
  C   C70       1.0  0.91324  0.98638  0.60125  1.0000
  C   C71       1.0  0.41871  0.48167  0.00672  1.0000
  C   C72       1.0  0.91871  0.98167  0.50672  1.0000
  C   C73       1.0  0.31959  0.56757  0.72372  1.0000
  C   C74       1.0  0.81959  0.06757  0.22372  1.0000
  C   C75       1.0  0.31394  0.57278  0.82432  1.0000
  C   C76       1.0  0.81394  0.07278  0.32432  1.0000
  H   H1        1.0  0.67257  0.62972  0.57345  1.0000
  H   H2        1.0  0.17257  0.12972  0.07345  1.0000
  H   H3        1.0  0.19607  0.99602  0.44245  1.0000
  H   H4        1.0  0.69607  0.49602  0.94245  1.0000
  H   H5        1.0  0.98254  0.66436  0.61325  1.0000
  H   H6        1.0  0.48254  0.16436  0.11325  1.0000
  Cl  Cl1       1.0  0.48254  0.42615  0.15648  1.0000
  Cl  Cl2       1.0  0.98254  0.92615  0.65648  1.0000
  H   H7        1.0  0.28763  0.98837  0.35052  1.0000
  H   H8        1.0  0.78763  0.48837  0.85052  1.0000
  H   H9        1.0  0.24820  0.62977  0.14910  1.0000
  H   H10       1.0  0.74820  0.12977  0.64910  1.0000
  H   H11       1.0  0.48199  0.11421  0.50068  1.0000
  H   H12       1.0  0.98199  0.61421  0.00068  1.0000
  H   H13       1.0  0.19528  0.12371  0.44291  1.0000
  H   H14       1.0  0.69528  0.62371  0.94291  1.0000
  H   H15       1.0  0.81102  0.67294  0.62310  1.0000
  H   H16       1.0  0.31103  0.17294  0.12310  1.0000
  Cl  Cl3       1.0  0.19150  0.99571  0.62320  1.0000
  Cl  Cl4       1.0  0.69150  0.49571  0.12320  1.0000
  H   H17       1.0  0.45351  0.10904  0.38516  1.0000
  H   H18       1.0  0.95351  0.60904  0.88516  1.0000
  H   H19       1.0  0.34797  0.12587  0.63624  1.0000
  H   H20       1.0  0.84797  0.62587  0.13625  1.0000
  Cl  Cl5       1.0  0.50615  0.97624  0.53276  1.0000
  Cl  Cl6       1.0  0.00615  0.47624  0.03276  1.0000
  Cl  Cl7       1.0  0.29843  0.12472  0.31199  1.0000
  Cl  Cl8       1.0  0.79843  0.62472  0.81199  1.0000
  H   H21       1.0  0.19855  0.67297  0.01064  1.0000
  H   H22       1.0  0.69855  0.17297  0.51064  1.0000
  H   H23       1.0  0.45792  0.98144  0.38882  1.0000
  H   H24       1.0  0.95792  0.48144  0.88882  1.0000
  Cl  Cl9       1.0  0.01706  0.45846  0.37677  1.0000
  Cl  Cl10      1.0  0.51706  0.95846  0.87677  1.0000
  Cl  Cl11      1.0  0.87861  0.41524  0.32713  1.0000
  Cl  Cl12      1.0  0.37861  0.91524  0.82713  1.0000
  H   H25       1.0  0.68471  0.44716  0.36376  1.0000
  H   H26       1.0  0.18471  0.94716  0.86376  1.0000
  Cl  Cl13      1.0  0.49487  0.41552  0.94310  1.0000
  Cl  Cl14      1.0  0.99487  0.91552  0.44310  1.0000
  H   H27       1.0  0.34691  0.99918  0.63624  1.0000
  H   H28       1.0  0.84691  0.49918  0.13624  1.0000
  Cl  Cl15      1.0  0.19304  0.14528  0.62410  1.0000
  Cl  Cl16      1.0  0.69304  0.64528  0.12410  1.0000
  Cl  Cl17      1.0  0.44521  0.45871  0.80464  1.0000
  Cl  Cl18      1.0  0.94522  0.95871  0.30464  1.0000
  H   H29       1.0  0.20847  0.66441  0.83915  1.0000
  H   H30       1.0  0.70847  0.16441  0.33915  1.0000
