data_image0
_chemical_formula_structural       Zn4O13C30HOH2OHOH6OH3OHOHOHOHOH
_chemical_formula_sum              "Zn4 O22 C30 H18"
_cell_length_a       12.5945
_cell_length_b       12.5945
_cell_length_c       12.5945
_cell_angle_alpha    90.0078
_cell_angle_beta     89.9738
_cell_angle_gamma    89.9903

_space_group_name_H-M_alt    "P 1"
_space_group_IT_number       1

loop_
  _space_group_symop_operation_xyz
  'x, y, z'

loop_
  _atom_site_type_symbol
  _atom_site_label
  _atom_site_symmetry_multiplicity
  _atom_site_fract_x
  _atom_site_fract_y
  _atom_site_fract_z
  _atom_site_occupancy
  Zn  Zn1       1.0  0.57611  0.37273  0.39851  1.0000
  Zn  Zn2       1.0  0.39810  0.37284  0.57648  1.0000
  Zn  Zn3       1.0  0.57608  0.55073  0.57644  1.0000
  Zn  Zn4       1.0  0.39819  0.55075  0.39851  1.0000
  O   O1        1.0  0.48712  0.46176  0.48749  1.0000
  O   O2        1.0  0.55247  0.22380  0.42214  1.0000
  O   O3        1.0  0.42166  0.39648  0.72542  1.0000
  O   O4        1.0  0.72503  0.52706  0.55282  1.0000
  O   O5        1.0  0.42168  0.22388  0.55289  1.0000
  O   O6        1.0  0.72505  0.39629  0.42209  1.0000
  O   O7        1.0  0.55242  0.52717  0.72539  1.0000
  O   O8        1.0  0.55251  0.69968  0.55282  1.0000
  O   O9        1.0  0.42184  0.52710  0.24957  1.0000
  O   O10       1.0  0.42182  0.69969  0.42209  1.0000
  O   O11       1.0  0.55256  0.39631  0.24957  1.0000
  O   O12       1.0  0.24917  0.39649  0.55289  1.0000
  O   O13       1.0  0.24923  0.52720  0.42214  1.0000
  C   C1        1.0  0.48717  0.73830  0.48745  1.0000
  C   C2        1.0  0.48717  0.85661  0.48741  1.0000
  C   C3        1.0  0.41595  0.92584  0.41644  1.0000
  C   C4        1.0  0.51299  0.99665  0.39027  1.0000
  C   C5        1.0  0.39005  0.99660  0.51360  1.0000
  C   C6        1.0  0.58427  0.92586  0.46118  1.0000
  C   C7        1.0  0.46126  0.92581  0.58456  1.0000
  C   C8        1.0  0.55837  0.99658  0.55842  1.0000
  C   C9        1.0  0.21058  0.46183  0.48750  1.0000
  C   C10       1.0  0.09227  0.46176  0.48747  1.0000
  C   C11       1.0  0.02302  0.53286  0.41640  1.0000
  C   C12       1.0  0.95216  0.55880  0.51351  1.0000
  C   C13       1.0  0.95234  0.43573  0.39033  1.0000
  C   C14       1.0  0.02297  0.48775  0.58463  1.0000
  C   C15       1.0  0.02316  0.36464  0.46139  1.0000
  C   C16       1.0  0.95233  0.39054  0.55857  1.0000
  C   C17       1.0  0.76474  0.46166  0.48745  1.0000
  C   C18       1.0  0.88305  0.46162  0.48744  1.0000
  C   C19       1.0  0.48721  0.46169  0.20986  1.0000
  C   C20       1.0  0.48725  0.46166  0.09156  1.0000
  C   C21       1.0  0.48708  0.18414  0.48750  1.0000
  C   C22       1.0  0.48709  0.06584  0.48747  1.0000
  C   C23       1.0  0.41620  0.53277  0.02231  1.0000
  C   C24       1.0  0.39018  0.43565  0.95154  1.0000
  C   C25       1.0  0.51333  0.55871  0.95153  1.0000
  C   C26       1.0  0.46119  0.36449  0.02235  1.0000
  C   C27       1.0  0.58438  0.48761  0.02235  1.0000
  C   C28       1.0  0.55840  0.39042  0.95161  1.0000
  C   C29       1.0  0.48711  0.46177  0.76403  1.0000
  C   C30       1.0  0.48737  0.46160  0.88233  1.0000
  H   H1        1.0  0.66639  0.89492  0.43896  1.0000
  O   O14       1.0  0.54199  0.03787  0.28147  1.0000
  H   H2        1.0  0.61537  0.08635  0.28707  1.0000
  H   H3        1.0  0.61864  0.02745  0.61846  1.0000
  O   O15       1.0  0.43201  0.25560  0.06315  1.0000
  H   H4        1.0  0.49081  0.19675  0.03400  1.0000
  O   O16       1.0  0.43223  0.88454  0.69333  1.0000
  H   H5        1.0  0.43331  0.79642  0.69247  1.0000
  H   H6        1.0  0.66646  0.50962  0.05347  1.0000
  H   H7        1.0  0.53535  0.64080  0.92042  1.0000
  H   H8        1.0  0.05406  0.59310  0.35638  1.0000
  H   H9        1.0  0.92131  0.41378  0.30820  1.0000
  H   H10       1.0  0.35583  0.89477  0.35636  1.0000
  O   O17       1.0  0.91084  0.66751  0.54274  1.0000
  H   H11       1.0  0.93915  0.72644  0.48365  1.0000
  H   H12       1.0  0.05436  0.28259  0.43930  1.0000
  H   H13       1.0  0.35602  0.59286  0.05335  1.0000
  O   O18       1.0  0.28145  0.40654  0.91032  1.0000
  H   H14       1.0  0.22703  0.39281  0.97829  1.0000
  O   O19       1.0  0.28130  0.03774  0.54294  1.0000
  H   H15       1.0  0.22236  0.00938  0.48390  1.0000
  O   O20       1.0  0.06388  0.51697  0.69346  1.0000
  H   H16       1.0  0.15201  0.51684  0.69261  1.0000
  O   O21       1.0  0.63806  0.31064  0.91074  1.0000
  H   H17       1.0  0.71836  0.33157  0.94037  1.0000
  O   O22       1.0  0.91146  0.31081  0.63824  1.0000
  H   H18       1.0  0.93990  0.33261  0.71875  1.0000
