data_image0
_chemical_formula_structural       Zn16O52C216H4Br12H4Br4H4Br12H12Br4H16Br8H8Br12H4Br4H8Br4
_chemical_formula_sum              "Zn16 O52 C216 H60 Br60"
_cell_length_a       18.0506
_cell_length_b       21.3954
_cell_length_c       21.3954
_cell_angle_alpha    90.008
_cell_angle_beta     90.0306
_cell_angle_gamma    89.9965

_space_group_name_H-M_alt    "P 1"
_space_group_IT_number       1

loop_
  _space_group_symop_operation_xyz
  'x, y, z'

loop_
  _atom_site_type_symbol
  _atom_site_label
  _atom_site_symmetry_multiplicity
  _atom_site_fract_x
  _atom_site_fract_y
  _atom_site_fract_z
  _atom_site_occupancy
  Zn  Zn1       1.0  0.13551  0.75042  0.35441  1.0000
  Zn  Zn2       1.0  0.38551  0.00042  0.60441  1.0000
  Zn  Zn3       1.0  0.63551  0.25042  0.85441  1.0000
  Zn  Zn4       1.0  0.88551  0.50042  0.10441  1.0000
  Zn  Zn5       1.0  0.13546  0.64566  0.24965  1.0000
  Zn  Zn6       1.0  0.38546  0.89566  0.49965  1.0000
  Zn  Zn7       1.0  0.63546  0.14566  0.74965  1.0000
  Zn  Zn8       1.0  0.88546  0.39566  0.99965  1.0000
  Zn  Zn9       1.0  0.01130  0.75043  0.24963  1.0000
  Zn  Zn10      1.0  0.26130  0.00043  0.49963  1.0000
  Zn  Zn11      1.0  0.51130  0.25043  0.74963  1.0000
  Zn  Zn12      1.0  0.76130  0.50043  0.99963  1.0000
  Zn  Zn13      1.0  0.01133  0.64569  0.35438  1.0000
  Zn  Zn14      1.0  0.26133  0.89569  0.60438  1.0000
  Zn  Zn15      1.0  0.51133  0.14569  0.85438  1.0000
  Zn  Zn16      1.0  0.76133  0.39569  0.10438  1.0000
  O   O1        1.0  0.07340  0.69805  0.30202  1.0000
  O   O2        1.0  0.32340  0.94805  0.55202  1.0000
  O   O3        1.0  0.57340  0.19805  0.80202  1.0000
  O   O4        1.0  0.82340  0.44805  0.05202  1.0000
  O   O5        1.0  0.23942  0.73651  0.34053  1.0000
  O   O6        1.0  0.48942  0.98651  0.59053  1.0000
  O   O7        1.0  0.73942  0.23651  0.84053  1.0000
  O   O8        1.0  0.98942  0.48651  0.09053  1.0000
  O   O9        1.0  0.11895  0.65955  0.16197  1.0000
  O   O10       1.0  0.36895  0.90955  0.41197  1.0000
  O   O11       1.0  0.61895  0.15955  0.66197  1.0000
  O   O12       1.0  0.86895  0.40955  0.91197  1.0000
  O   O13       1.0  0.02779  0.83811  0.26354  1.0000
  O   O14       1.0  0.27779  0.08811  0.51354  1.0000
  O   O15       1.0  0.52779  0.33811  0.76354  1.0000
  O   O16       1.0  0.77779  0.58811  0.01354  1.0000
  O   O17       1.0  0.23939  0.65955  0.26356  1.0000
  O   O18       1.0  0.48939  0.90955  0.51357  1.0000
  O   O19       1.0  0.73939  0.15955  0.76357  1.0000
  O   O20       1.0  0.98939  0.40955  0.01357  1.0000
  O   O21       1.0  0.11904  0.83810  0.34052  1.0000
  O   O22       1.0  0.36904  0.08810  0.59052  1.0000
  O   O23       1.0  0.61904  0.33810  0.84052  1.0000
  O   O24       1.0  0.86904  0.58810  0.09051  1.0000
  O   O25       1.0  0.02774  0.73652  0.16196  1.0000
  O   O26       1.0  0.27774  0.98652  0.41196  1.0000
  O   O27       1.0  0.52774  0.23653  0.66196  1.0000
  O   O28       1.0  0.77774  0.48652  0.91196  1.0000
  O   O29       1.0  0.90738  0.73655  0.26351  1.0000
  O   O30       1.0  0.15738  0.98655  0.51351  1.0000
  O   O31       1.0  0.40738  0.23655  0.76351  1.0000
  O   O32       1.0  0.65738  0.48655  0.01351  1.0000
  O   O33       1.0  0.02784  0.65959  0.44206  1.0000
  O   O34       1.0  0.27784  0.90959  0.69206  1.0000
  O   O35       1.0  0.52784  0.15959  0.94206  1.0000
  O   O36       1.0  0.77784  0.40959  0.19206  1.0000
  O   O37       1.0  0.90741  0.65959  0.34047  1.0000
  O   O38       1.0  0.15740  0.90959  0.59047  1.0000
  O   O39       1.0  0.40740  0.15959  0.84047  1.0000
  O   O40       1.0  0.65740  0.40959  0.09047  1.0000
  O   O41       1.0  0.11907  0.73654  0.44208  1.0000
  O   O42       1.0  0.36907  0.98654  0.69208  1.0000
  O   O43       1.0  0.61907  0.23654  0.94208  1.0000
  O   O44       1.0  0.86907  0.48654  0.19208  1.0000
  O   O45       1.0  0.11898  0.55799  0.26354  1.0000
  O   O46       1.0  0.36898  0.80799  0.51354  1.0000
  O   O47       1.0  0.61898  0.05799  0.76354  1.0000
  O   O48       1.0  0.86898  0.30799  0.01354  1.0000
  O   O49       1.0  0.02779  0.55800  0.34048  1.0000
  O   O50       1.0  0.27779  0.80800  0.59048  1.0000
  O   O51       1.0  0.52779  0.05801  0.84048  1.0000
  O   O52       1.0  0.77779  0.30800  0.09048  1.0000
  C   C1        1.0  0.88045  0.69807  0.30198  1.0000
  C   C2        1.0  0.13045  0.94807  0.55198  1.0000
  C   C3        1.0  0.38045  0.19807  0.80198  1.0000
  C   C4        1.0  0.63045  0.44807  0.05198  1.0000
  C   C5        1.0  0.79790  0.69807  0.30198  1.0000
  C   C6        1.0  0.04790  0.94807  0.55198  1.0000
  C   C7        1.0  0.29790  0.19807  0.80198  1.0000
  C   C8        1.0  0.54790  0.44807  0.05198  1.0000
  C   C9        1.0  0.07340  0.53526  0.30202  1.0000
  C   C10       1.0  0.32340  0.78526  0.55202  1.0000
  C   C11       1.0  0.57340  0.03526  0.80202  1.0000
  C   C12       1.0  0.82340  0.28526  0.05202  1.0000
  C   C13       1.0  0.07347  0.46562  0.30204  1.0000
  C   C14       1.0  0.32347  0.71562  0.55204  1.0000
  C   C15       1.0  0.57347  0.96562  0.80204  1.0000
  C   C16       1.0  0.82347  0.21562  0.05204  1.0000
  C   C17       1.0  0.07346  0.69806  0.46544  1.0000
  C   C18       1.0  0.32346  0.94806  0.71544  1.0000
  C   C19       1.0  0.57346  0.19806  0.96544  1.0000
  C   C20       1.0  0.82346  0.44806  0.21544  1.0000
  C   C21       1.0  0.07349  0.69807  0.53508  1.0000
  C   C22       1.0  0.32349  0.94807  0.78508  1.0000
  C   C23       1.0  0.57349  0.19807  0.03508  1.0000
  C   C24       1.0  0.82349  0.44807  0.28508  1.0000
  C   C25       1.0  0.59842  0.73996  0.26023  1.0000
  C   C26       1.0  0.84842  0.98996  0.51023  1.0000
  C   C27       1.0  0.09842  0.23997  0.76023  1.0000
  C   C28       1.0  0.34842  0.48996  0.01023  1.0000
  C   C29       1.0  0.54903  0.68282  0.24482  1.0000
  C   C30       1.0  0.79903  0.93282  0.49482  1.0000
  C   C31       1.0  0.04903  0.18282  0.74482  1.0000
  C   C32       1.0  0.29903  0.43282  0.99482  1.0000
  C   C33       1.0  0.64677  0.69805  0.30201  1.0000
  C   C34       1.0  0.89677  0.94805  0.55201  1.0000
  C   C35       1.0  0.14677  0.19805  0.80201  1.0000
  C   C36       1.0  0.39677  0.44805  0.05201  1.0000
  C   C37       1.0  0.54908  0.75518  0.31742  1.0000
  C   C38       1.0  0.79908  0.00517  0.56742  1.0000
  C   C39       1.0  0.04908  0.25517  0.81742  1.0000
  C   C40       1.0  0.29908  0.50518  0.06742  1.0000
  C   C41       1.0  0.50079  0.69804  0.30204  1.0000
  C   C42       1.0  0.75079  0.94804  0.55204  1.0000
  C   C43       1.0  0.00079  0.19804  0.80204  1.0000
  C   C44       1.0  0.25079  0.44804  0.05204  1.0000
  C   C45       1.0  0.59847  0.64087  0.28657  1.0000
  C   C46       1.0  0.84847  0.89087  0.53657  1.0000
  C   C47       1.0  0.09847  0.14087  0.78657  1.0000
  C   C48       1.0  0.34847  0.39087  0.03657  1.0000
  C   C49       1.0  0.59852  0.71327  0.35920  1.0000
  C   C50       1.0  0.84852  0.96327  0.60920  1.0000
  C   C51       1.0  0.09852  0.21327  0.85920  1.0000
  C   C52       1.0  0.34852  0.46327  0.10920  1.0000
  C   C53       1.0  0.54916  0.65608  0.34381  1.0000
  C   C54       1.0  0.79916  0.90608  0.59381  1.0000
  C   C55       1.0  0.04916  0.15608  0.84381  1.0000
  C   C56       1.0  0.29916  0.40608  0.09381  1.0000
  C   C57       1.0  0.73087  0.69806  0.30199  1.0000
  C   C58       1.0  0.98087  0.94806  0.55199  1.0000
  C   C59       1.0  0.23087  0.19806  0.80199  1.0000
  C   C60       1.0  0.48087  0.44806  0.05199  1.0000
  C   C61       1.0  0.41669  0.69802  0.30205  1.0000
  C   C62       1.0  0.66669  0.94802  0.55205  1.0000
  C   C63       1.0  0.91669  0.19802  0.80205  1.0000
  C   C64       1.0  0.16669  0.44802  0.05205  1.0000
  C   C65       1.0  0.26711  0.69803  0.30205  1.0000
  C   C66       1.0  0.51711  0.94803  0.55205  1.0000
  C   C67       1.0  0.76711  0.19803  0.80205  1.0000
  C   C68       1.0  0.01711  0.44803  0.05205  1.0000
  C   C69       1.0  0.34965  0.69802  0.30207  1.0000
  C   C70       1.0  0.59965  0.94802  0.55207  1.0000
  C   C71       1.0  0.84965  0.19802  0.80207  1.0000
  C   C72       1.0  0.09965  0.44802  0.05207  1.0000
  C   C73       1.0  0.07342  0.86147  0.30203  1.0000
  C   C74       1.0  0.32342  0.11147  0.55203  1.0000
  C   C75       1.0  0.57342  0.36147  0.80203  1.0000
  C   C76       1.0  0.82342  0.61147  0.05203  1.0000
  C   C77       1.0  0.07342  0.93111  0.30203  1.0000
  C   C78       1.0  0.32342  0.18111  0.55203  1.0000
  C   C79       1.0  0.57342  0.43111  0.80203  1.0000
  C   C80       1.0  0.82342  0.68111  0.05203  1.0000
  C   C81       1.0  0.02600  0.43292  0.34211  1.0000
  C   C82       1.0  0.27600  0.68292  0.59211  1.0000
  C   C83       1.0  0.52600  0.93292  0.84211  1.0000
  C   C84       1.0  0.77600  0.18292  0.09211  1.0000
  C   C85       1.0  0.02599  0.36748  0.34210  1.0000
  C   C86       1.0  0.27599  0.61748  0.59210  1.0000
  C   C87       1.0  0.52599  0.86748  0.84210  1.0000
  C   C88       1.0  0.77599  0.11748  0.09210  1.0000
  C   C89       1.0  0.07346  0.33475  0.30204  1.0000
  C   C90       1.0  0.32346  0.58475  0.55204  1.0000
  C   C91       1.0  0.57346  0.83475  0.80204  1.0000
  C   C92       1.0  0.82346  0.08475  0.05204  1.0000
  C   C93       1.0  0.12094  0.36746  0.26197  1.0000
  C   C94       1.0  0.37094  0.61746  0.51197  1.0000
  C   C95       1.0  0.62094  0.86746  0.76197  1.0000
  C   C96       1.0  0.87094  0.11746  0.01197  1.0000
  C   C97       1.0  0.12095  0.43290  0.26197  1.0000
  C   C98       1.0  0.37095  0.68290  0.51197  1.0000
  C   C99       1.0  0.62095  0.93290  0.76197  1.0000
  C   C100      1.0  0.87095  0.18290  0.01197  1.0000
  C   C101      1.0  0.14037  0.23108  0.29711  1.0000
  C   C102      1.0  0.39037  0.48108  0.54711  1.0000
  C   C103      1.0  0.64036  0.73108  0.79711  1.0000
  C   C104      1.0  0.89036  0.98108  0.04711  1.0000
  C   C105      1.0  0.14036  0.16564  0.29711  1.0000
  C   C106      1.0  0.39036  0.41564  0.54711  1.0000
  C   C107      1.0  0.64036  0.66565  0.79711  1.0000
  C   C108      1.0  0.89036  0.91565  0.04711  1.0000
  C   C109      1.0  0.07345  0.13293  0.30204  1.0000
  C   C110      1.0  0.32345  0.38293  0.55204  1.0000
  C   C111      1.0  0.57345  0.63293  0.80204  1.0000
  C   C112      1.0  0.82345  0.88293  0.05204  1.0000
  C   C113      1.0  0.00654  0.16566  0.30698  1.0000
  C   C114      1.0  0.25654  0.41566  0.55697  1.0000
  C   C115      1.0  0.50654  0.66566  0.80698  1.0000
  C   C116      1.0  0.75654  0.91566  0.05697  1.0000
  C   C117      1.0  0.00655  0.23109  0.30698  1.0000
  C   C118      1.0  0.25654  0.48109  0.55697  1.0000
  C   C119      1.0  0.50655  0.73109  0.80698  1.0000
  C   C120      1.0  0.75655  0.98109  0.05697  1.0000
  C   C121      1.0  0.07346  0.26380  0.30204  1.0000
  C   C122      1.0  0.32346  0.51380  0.55204  1.0000
  C   C123      1.0  0.57346  0.76380  0.80204  1.0000
  C   C124      1.0  0.82346  0.01380  0.05204  1.0000
  C   C125      1.0  0.02596  0.02928  0.34210  1.0000
  C   C126      1.0  0.27596  0.27928  0.59210  1.0000
  C   C127      1.0  0.52596  0.52928  0.84210  1.0000
  C   C128      1.0  0.77596  0.77928  0.09210  1.0000
  C   C129      1.0  0.02595  0.96384  0.34209  1.0000
  C   C130      1.0  0.27595  0.21384  0.59209  1.0000
  C   C131      1.0  0.52595  0.46384  0.84209  1.0000
  C   C132      1.0  0.77595  0.71384  0.09209  1.0000
  C   C133      1.0  0.12091  0.96382  0.26197  1.0000
  C   C134      1.0  0.37091  0.21382  0.51197  1.0000
  C   C135      1.0  0.62091  0.46382  0.76197  1.0000
  C   C136      1.0  0.87091  0.71382  0.01197  1.0000
  C   C137      1.0  0.12091  0.02926  0.26197  1.0000
  C   C138      1.0  0.37091  0.27926  0.51197  1.0000
  C   C139      1.0  0.62091  0.52926  0.76197  1.0000
  C   C140      1.0  0.87091  0.77926  0.01197  1.0000
  C   C141      1.0  0.07344  0.06198  0.30204  1.0000
  C   C142      1.0  0.32344  0.31198  0.55204  1.0000
  C   C143      1.0  0.57344  0.56198  0.80204  1.0000
  C   C144      1.0  0.82344  0.81198  0.05204  1.0000
  C   C145      1.0  0.07338  0.69808  0.13923  1.0000
  C   C146      1.0  0.32338  0.94808  0.38923  1.0000
  C   C147      1.0  0.57338  0.19808  0.63923  1.0000
  C   C148      1.0  0.82338  0.44808  0.88923  1.0000
  C   C149      1.0  0.07350  0.69825  0.06959  1.0000
  C   C150      1.0  0.32350  0.94825  0.31959  1.0000
  C   C151      1.0  0.57350  0.19825  0.56959  1.0000
  C   C152      1.0  0.82350  0.44825  0.81959  1.0000
  C   C153      1.0  0.12099  0.73814  0.56781  1.0000
  C   C154      1.0  0.37099  0.98814  0.81781  1.0000
  C   C155      1.0  0.62099  0.23814  0.06781  1.0000
  C   C156      1.0  0.87099  0.48814  0.31781  1.0000
  C   C157      1.0  0.12099  0.73816  0.63324  1.0000
  C   C158      1.0  0.37099  0.98816  0.88324  1.0000
  C   C159      1.0  0.62099  0.23816  0.13324  1.0000
  C   C160      1.0  0.87099  0.48816  0.38324  1.0000
  C   C161      1.0  0.07349  0.69811  0.66595  1.0000
  C   C162      1.0  0.32349  0.94811  0.91595  1.0000
  C   C163      1.0  0.57349  0.19811  0.16595  1.0000
  C   C164      1.0  0.82349  0.44811  0.41595  1.0000
  C   C165      1.0  0.02598  0.65804  0.63322  1.0000
  C   C166      1.0  0.27598  0.90804  0.88322  1.0000
  C   C167      1.0  0.52598  0.15804  0.13322  1.0000
  C   C168      1.0  0.77598  0.40804  0.38322  1.0000
  C   C169      1.0  0.02598  0.65802  0.56778  1.0000
  C   C170      1.0  0.27598  0.90802  0.81778  1.0000
  C   C171      1.0  0.52598  0.15802  0.06778  1.0000
  C   C172      1.0  0.77598  0.40802  0.31778  1.0000
  C   C173      1.0  0.06763  0.64170  0.76963  1.0000
  C   C174      1.0  0.31763  0.89170  0.01963  1.0000
  C   C175      1.0  0.56763  0.14170  0.26963  1.0000
  C   C176      1.0  0.81763  0.39170  0.51963  1.0000
  C   C177      1.0  0.06764  0.64172  0.83506  1.0000
  C   C178      1.0  0.31764  0.89172  0.08506  1.0000
  C   C179      1.0  0.56764  0.14172  0.33506  1.0000
  C   C180      1.0  0.81764  0.39172  0.58506  1.0000
  C   C181      1.0  0.07350  0.69818  0.86777  1.0000
  C   C182      1.0  0.32350  0.94818  0.11777  1.0000
  C   C183      1.0  0.57350  0.19818  0.36777  1.0000
  C   C184      1.0  0.82350  0.44818  0.61777  1.0000
  C   C185      1.0  0.07936  0.75462  0.83504  1.0000
  C   C186      1.0  0.32936  0.00462  0.08504  1.0000
  C   C187      1.0  0.57936  0.25462  0.33504  1.0000
  C   C188      1.0  0.82936  0.50462  0.58504  1.0000
  C   C189      1.0  0.07936  0.75460  0.76961  1.0000
  C   C190      1.0  0.32936  0.00460  0.01961  1.0000
  C   C191      1.0  0.57936  0.25460  0.26961  1.0000
  C   C192      1.0  0.82936  0.50460  0.51961  1.0000
  C   C193      1.0  0.07349  0.69813  0.73690  1.0000
  C   C194      1.0  0.32349  0.94813  0.98690  1.0000
  C   C195      1.0  0.57349  0.19813  0.23690  1.0000
  C   C196      1.0  0.82349  0.44813  0.48690  1.0000
  C   C197      1.0  0.12100  0.73828  0.97145  1.0000
  C   C198      1.0  0.37100  0.98828  0.22145  1.0000
  C   C199      1.0  0.62100  0.23828  0.47145  1.0000
  C   C200      1.0  0.87100  0.48828  0.72145  1.0000
  C   C201      1.0  0.12099  0.73831  0.03689  1.0000
  C   C202      1.0  0.37099  0.98831  0.28689  1.0000
  C   C203      1.0  0.62099  0.23831  0.53689  1.0000
  C   C204      1.0  0.87099  0.48831  0.78689  1.0000
  C   C205      1.0  0.02599  0.65818  0.03686  1.0000
  C   C206      1.0  0.27599  0.90818  0.28686  1.0000
  C   C207      1.0  0.52599  0.15818  0.53686  1.0000
  C   C208      1.0  0.77599  0.40818  0.78686  1.0000
  C   C209      1.0  0.02600  0.65815  0.97142  1.0000
  C   C210      1.0  0.27600  0.90815  0.22142  1.0000
  C   C211      1.0  0.52600  0.15815  0.47142  1.0000
  C   C212      1.0  0.77600  0.40815  0.72142  1.0000
  C   C213      1.0  0.07350  0.69820  0.93872  1.0000
  C   C214      1.0  0.32350  0.94820  0.18872  1.0000
  C   C215      1.0  0.57350  0.19820  0.43872  1.0000
  C   C216      1.0  0.82350  0.44820  0.68872  1.0000
  H   H1        1.0  0.62005  0.77537  0.22486  1.0000
  H   H2        1.0  0.87005  0.02537  0.47486  1.0000
  H   H3        1.0  0.12005  0.27537  0.72486  1.0000
  H   H4        1.0  0.37005  0.52537  0.97486  1.0000
  Br  Br1       1.0  0.51279  0.66135  0.16424  1.0000
  Br  Br2       1.0  0.76279  0.91135  0.41424  1.0000
  Br  Br3       1.0  0.01279  0.16135  0.66424  1.0000
  Br  Br4       1.0  0.26279  0.41135  0.91424  1.0000
  Br  Br5       1.0  0.18547  0.79263  0.92707  1.0000
  Br  Br6       1.0  0.43547  0.04263  0.17707  1.0000
  Br  Br7       1.0  0.68547  0.29263  0.42707  1.0000
  Br  Br8       1.0  0.93547  0.54263  0.67707  1.0000
  Br  Br9       1.0  0.51333  0.59693  0.40272  1.0000
  Br  Br10      1.0  0.76333  0.84693  0.65272  1.0000
  Br  Br11      1.0  0.01333  0.09693  0.90272  1.0000
  Br  Br12      1.0  0.26333  0.34693  0.15272  1.0000
  H   H5        1.0  0.98734  0.34085  0.37473  1.0000
  H   H6        1.0  0.23734  0.59085  0.62474  1.0000
  H   H7        1.0  0.48734  0.84085  0.87474  1.0000
  H   H8        1.0  0.73734  0.09085  0.12474  1.0000
  Br  Br13      1.0  0.18544  0.79256  0.67767  1.0000
  Br  Br14      1.0  0.43544  0.04256  0.92767  1.0000
  Br  Br15      1.0  0.68544  0.29256  0.17767  1.0000
  Br  Br16      1.0  0.93544  0.54256  0.42767  1.0000
  H   H9        1.0  0.98730  0.62539  0.54114  1.0000
  H   H10       1.0  0.23730  0.87539  0.79114  1.0000
  H   H11       1.0  0.48730  0.12539  0.04114  1.0000
  H   H12       1.0  0.73730  0.37539  0.29114  1.0000
  Br  Br17      1.0  0.91572  0.12127  0.31366  1.0000
  Br  Br18      1.0  0.16572  0.37127  0.56366  1.0000
  Br  Br19      1.0  0.41572  0.62127  0.81366  1.0000
  Br  Br20      1.0  0.66572  0.87127  0.06366  1.0000
  Br  Br21      1.0  0.63447  0.56032  0.26478  1.0000
  Br  Br22      1.0  0.88447  0.81032  0.51478  1.0000
  Br  Br23      1.0  0.13447  0.06032  0.76478  1.0000
  Br  Br24      1.0  0.38447  0.31032  0.01478  1.0000
  Br  Br25      1.0  0.18548  0.79268  0.08130  1.0000
  Br  Br26      1.0  0.43548  0.04268  0.33130  1.0000
  Br  Br27      1.0  0.68548  0.29268  0.58130  1.0000
  Br  Br28      1.0  0.93548  0.54268  0.83130  1.0000
  H   H13       1.0  0.08414  0.80055  0.74296  1.0000
  H   H14       1.0  0.33414  0.05056  0.99296  1.0000
  H   H15       1.0  0.58414  0.30056  0.24296  1.0000
  H   H16       1.0  0.83414  0.55056  0.49296  1.0000
  H   H17       1.0  0.98731  0.62543  0.65985  1.0000
  H   H18       1.0  0.23731  0.87543  0.90985  1.0000
  H   H19       1.0  0.48731  0.12543  0.15985  1.0000
  H   H20       1.0  0.73731  0.37543  0.40985  1.0000
  H   H21       1.0  0.95207  0.25774  0.31099  1.0000
  H   H22       1.0  0.20206  0.50774  0.56099  1.0000
  H   H23       1.0  0.45206  0.75774  0.81099  1.0000
  H   H24       1.0  0.70206  0.00774  0.06099  1.0000
  Br  Br29      1.0  0.96153  0.07369  0.39648  1.0000
  Br  Br30      1.0  0.21153  0.32369  0.64648  1.0000
  Br  Br31      1.0  0.46153  0.57369  0.89648  1.0000
  Br  Br32      1.0  0.71153  0.82369  0.14648  1.0000
  H   H25       1.0  0.15961  0.45952  0.22935  1.0000
  H   H26       1.0  0.40961  0.70952  0.47935  1.0000
  H   H27       1.0  0.65961  0.95952  0.72935  1.0000
  H   H28       1.0  0.90961  0.20952  0.97935  1.0000
  H   H29       1.0  0.06266  0.59573  0.74300  1.0000
  H   H30       1.0  0.31266  0.84573  0.99300  1.0000
  H   H31       1.0  0.56266  0.09573  0.24300  1.0000
  H   H32       1.0  0.81266  0.34573  0.49300  1.0000
  H   H33       1.0  0.62028  0.72617  0.40753  1.0000
  H   H34       1.0  0.87028  0.97617  0.65753  1.0000
  H   H35       1.0  0.12028  0.22617  0.90753  1.0000
  H   H36       1.0  0.37028  0.47617  0.15753  1.0000
  H   H37       1.0  0.98728  0.93722  0.37472  1.0000
  H   H38       1.0  0.23728  0.18721  0.62472  1.0000
  H   H39       1.0  0.48728  0.43721  0.87472  1.0000
  H   H40       1.0  0.73728  0.68722  0.12471  1.0000
  Br  Br33      1.0  0.18537  0.32305  0.20760  1.0000
  Br  Br34      1.0  0.43537  0.57305  0.45760  1.0000
  Br  Br35      1.0  0.68537  0.82305  0.70760  1.0000
  Br  Br36      1.0  0.93537  0.07305  0.95760  1.0000
  Br  Br37      1.0  0.51291  0.83570  0.33912  1.0000
  Br  Br38      1.0  0.76291  0.08570  0.58912  1.0000
  Br  Br39      1.0  0.01291  0.33570  0.83912  1.0000
  Br  Br40      1.0  0.26291  0.58570  0.08912  1.0000
  H   H41       1.0  0.15956  0.93717  0.22935  1.0000
  H   H42       1.0  0.40956  0.18717  0.47935  1.0000
  H   H43       1.0  0.65956  0.43717  0.72935  1.0000
  H   H44       1.0  0.90956  0.68717  0.97935  1.0000
  H   H45       1.0  0.98734  0.45956  0.37473  1.0000
  H   H46       1.0  0.23734  0.70956  0.62473  1.0000
  H   H47       1.0  0.48734  0.95956  0.87473  1.0000
  H   H48       1.0  0.73734  0.20956  0.12473  1.0000
  Br  Br41      1.0  0.18535  0.07364  0.20760  1.0000
  Br  Br42      1.0  0.43535  0.32364  0.45760  1.0000
  Br  Br43      1.0  0.68535  0.57364  0.70760  1.0000
  Br  Br44      1.0  0.93535  0.82364  0.95760  1.0000
  Br  Br45      1.0  0.23118  0.27547  0.29041  1.0000
  Br  Br46      1.0  0.48118  0.52547  0.54041  1.0000
  Br  Br47      1.0  0.73118  0.77547  0.79041  1.0000
  Br  Br48      1.0  0.98118  0.02547  0.04041  1.0000
  Br  Br49      1.0  0.23117  0.12124  0.29042  1.0000
  Br  Br50      1.0  0.48117  0.37123  0.54043  1.0000
  Br  Br51      1.0  0.73117  0.62123  0.79043  1.0000
  Br  Br52      1.0  0.98117  0.87123  0.04042  1.0000
  H   H49       1.0  0.98732  0.62557  0.06349  1.0000
  H   H50       1.0  0.23732  0.87557  0.31349  1.0000
  H   H51       1.0  0.48732  0.12557  0.56349  1.0000
  H   H52       1.0  0.73732  0.37557  0.81349  1.0000
  Br  Br53      1.0  0.18546  0.79249  0.52343  1.0000
  Br  Br54      1.0  0.43546  0.04249  0.77343  1.0000
  Br  Br55      1.0  0.68546  0.29249  0.02343  1.0000
  Br  Br56      1.0  0.93546  0.54249  0.27343  1.0000
  H   H53       1.0  0.08414  0.80060  0.86168  1.0000
  H   H54       1.0  0.33414  0.05060  0.11168  1.0000
  H   H55       1.0  0.58414  0.30060  0.36168  1.0000
  H   H56       1.0  0.83414  0.55059  0.61168  1.0000
  H   H57       1.0  0.98732  0.62552  0.94478  1.0000
  H   H58       1.0  0.23732  0.87552  0.19478  1.0000
  H   H59       1.0  0.48732  0.12552  0.44478  1.0000
  H   H60       1.0  0.73732  0.37552  0.69478  1.0000
  Br  Br57      1.0  0.05969  0.56512  0.87947  1.0000
  Br  Br58      1.0  0.30969  0.81512  0.12947  1.0000
  Br  Br59      1.0  0.55969  0.06512  0.37947  1.0000
  Br  Br60      1.0  0.80969  0.31512  0.62947  1.0000
