data_image0
_chemical_formula_structural       Zn4O13C60HOHOH8OHOH2OHOHOH5OHOH2OH3OH2OHOHOH2OH3OH
_chemical_formula_sum              "Zn4 O29 C60 H36"
_cell_length_a       12.7594
_cell_length_b       21.3954
_cell_length_c       21.3954
_cell_angle_alpha    90.048
_cell_angle_beta     89.9857
_cell_angle_gamma    89.9666

_space_group_name_H-M_alt    "P 1"
_space_group_IT_number       1

loop_
  _space_group_symop_operation_xyz
  'x, y, z'

loop_
  _atom_site_type_symbol
  _atom_site_label
  _atom_site_symmetry_multiplicity
  _atom_site_fract_x
  _atom_site_fract_y
  _atom_site_fract_z
  _atom_site_occupancy
  Zn  Zn1       1.0  0.58212  0.04207  0.64533  1.0000
  Zn  Zn2       1.0  0.40646  0.04214  0.75010  1.0000
  Zn  Zn3       1.0  0.58207  0.14686  0.75013  1.0000
  Zn  Zn4       1.0  0.40643  0.14686  0.64540  1.0000
  O   O1        1.0  0.49427  0.09448  0.69774  1.0000
  O   O2        1.0  0.55886  0.95440  0.65918  1.0000
  O   O3        1.0  0.42974  0.05606  0.83778  1.0000
  O   O4        1.0  0.72910  0.13293  0.73622  1.0000
  O   O5        1.0  0.42980  0.95446  0.73615  1.0000
  O   O6        1.0  0.72914  0.05594  0.65921  1.0000
  O   O7        1.0  0.55876  0.13299  0.83781  1.0000
  O   O8        1.0  0.55873  0.23454  0.73629  1.0000
  O   O9        1.0  0.42975  0.13293  0.55771  1.0000
  O   O10       1.0  0.42969  0.23454  0.65934  1.0000
  O   O11       1.0  0.55883  0.05595  0.55766  1.0000
  O   O12       1.0  0.25943  0.05606  0.73622  1.0000
  O   O13       1.0  0.25941  0.13300  0.65930  1.0000
  C   C1        1.0  0.49420  0.25727  0.69782  1.0000
  C   C2        1.0  0.49415  0.32691  0.69785  1.0000
  C   C3        1.0  0.42687  0.35961  0.65784  1.0000
  C   C4        1.0  0.42689  0.42505  0.65782  1.0000
  C   C5        1.0  0.49418  0.45778  0.69781  1.0000
  C   C6        1.0  0.56148  0.42508  0.73782  1.0000
  C   C7        1.0  0.56146  0.35964  0.73783  1.0000
  C   C8        1.0  0.50264  0.56151  0.75422  1.0000
  C   C9        1.0  0.50265  0.62694  0.75421  1.0000
  C   C10       1.0  0.49424  0.65960  0.69776  1.0000
  C   C11       1.0  0.48580  0.62682  0.64132  1.0000
  C   C12       1.0  0.48578  0.56139  0.64134  1.0000
  C   C13       1.0  0.49421  0.52873  0.69779  1.0000
  C   C14       1.0  0.42697  0.76325  0.65772  1.0000
  C   C15       1.0  0.42700  0.82869  0.65770  1.0000
  C   C16       1.0  0.56158  0.82872  0.73770  1.0000
  C   C17       1.0  0.56156  0.76328  0.73772  1.0000
  C   C18       1.0  0.49425  0.73055  0.69773  1.0000
  C   C19       1.0  0.22130  0.09452  0.69775  1.0000
  C   C20       1.0  0.10453  0.09448  0.69774  1.0000
  C   C21       1.0  0.04971  0.05437  0.73775  1.0000
  C   C22       1.0  0.93999  0.05433  0.73772  1.0000
  C   C23       1.0  0.93990  0.13451  0.65769  1.0000
  C   C24       1.0  0.04963  0.13455  0.65771  1.0000
  C   C25       1.0  0.79016  0.98038  0.75999  1.0000
  C   C26       1.0  0.73534  0.94028  0.80000  1.0000
  C   C27       1.0  0.77091  0.93064  0.86113  1.0000
  C   C28       1.0  0.86131  0.96112  0.88226  1.0000
  C   C29       1.0  0.91612  0.00122  0.84225  1.0000
  C   C30       1.0  0.88055  0.01085  0.78111  1.0000
  C   C31       1.0  0.19946  0.20850  0.63545  1.0000
  C   C32       1.0  0.25427  0.24861  0.59544  1.0000
  C   C33       1.0  0.21870  0.25826  0.53431  1.0000
  C   C34       1.0  0.12830  0.22779  0.51319  1.0000
  C   C35       1.0  0.07349  0.18768  0.55320  1.0000
  C   C36       1.0  0.10907  0.17804  0.61433  1.0000
  C   C37       1.0  0.76830  0.09443  0.69771  1.0000
  C   C38       1.0  0.88508  0.09440  0.69770  1.0000
  C   C39       1.0  0.49429  0.09443  0.53432  1.0000
  C   C40       1.0  0.49430  0.09441  0.46468  1.0000
  C   C41       1.0  0.49432  0.93106  0.69767  1.0000
  C   C42       1.0  0.49430  0.86142  0.69769  1.0000
  C   C43       1.0  0.56152  0.05432  0.43193  1.0000
  C   C44       1.0  0.56156  0.05432  0.36650  1.0000
  C   C45       1.0  0.49437  0.09440  0.33381  1.0000
  C   C46       1.0  0.42715  0.13450  0.36656  1.0000
  C   C47       1.0  0.42712  0.13450  0.43199  1.0000
  C   C48       1.0  0.39977  0.09936  0.23014  1.0000
  C   C49       1.0  0.39980  0.09936  0.16471  1.0000
  C   C50       1.0  0.49448  0.09440  0.13199  1.0000
  C   C51       1.0  0.58913  0.08944  0.16471  1.0000
  C   C52       1.0  0.58909  0.08944  0.23014  1.0000
  C   C53       1.0  0.49440  0.09441  0.26285  1.0000
  C   C54       1.0  0.56175  0.05431  0.02829  1.0000
  C   C55       1.0  0.56180  0.05432  0.96285  1.0000
  C   C56       1.0  0.42738  0.13449  0.96291  1.0000
  C   C57       1.0  0.42735  0.13449  0.02835  1.0000
  C   C58       1.0  0.49453  0.09440  0.06103  1.0000
  C   C59       1.0  0.49433  0.09450  0.86053  1.0000
  C   C60       1.0  0.49461  0.09440  0.93017  1.0000
  H   H1        1.0  0.50951  0.65362  0.80016  1.0000
  O   O14       1.0  0.51170  0.52628  0.81511  1.0000
  H   H2        1.0  0.58651  0.53884  0.83841  1.0000
  O   O15       1.0  0.35464  0.17775  0.46731  1.0000
  H   H3        1.0  0.30793  0.20563  0.43359  1.0000
  H   H4        1.0  0.37221  0.85531  0.62512  1.0000
  H   H5        1.0  0.99988  0.16288  0.53599  1.0000
  H   H6        1.0  0.61638  0.85537  0.77026  1.0000
  H   H7        1.0  0.26334  0.29092  0.50173  1.0000
  H   H8        1.0  0.61627  0.45173  0.77038  1.0000
  H   H9        1.0  0.76119  0.98822  0.71021  1.0000
  H   H10       1.0  0.22844  0.20065  0.68522  1.0000
  O   O16       1.0  0.08991  0.23821  0.44726  1.0000
  H   H11       1.0  0.01783  0.21030  0.43930  1.0000
  O   O17       1.0  0.63412  0.72802  0.78088  1.0000
  H   H12       1.0  0.68751  0.69815  0.75280  1.0000
  H   H13       1.0  0.37217  0.73660  0.62516  1.0000
  O   O18       1.0  0.47675  0.66204  0.58042  1.0000
  H   H14       1.0  0.40194  0.64949  0.55712  1.0000
  O   O19       1.0  0.88069  0.17774  0.61452  1.0000
  H   H15       1.0  0.79519  0.17098  0.62124  1.0000
  O   O20       1.0  0.29765  0.10471  0.26543  1.0000
  H   H16       1.0  0.29928  0.14716  0.29527  1.0000
  H   H17       1.0  0.32788  0.27341  0.61264  1.0000
  H   H18       1.0  0.61622  0.02168  0.45854  1.0000
  H   H19       1.0  0.66174  0.91547  0.78280  1.0000
  H   H20       1.0  0.47891  0.53470  0.59538  1.0000
  O   O21       1.0  0.63405  0.01108  0.33117  1.0000
  H   H21       1.0  0.68076  0.98320  0.36489  1.0000
  O   O22       1.0  0.29773  0.10472  0.12941  1.0000
  H   H22       1.0  0.23189  0.10818  0.16316  1.0000
  H   H23       1.0  0.09441  0.02175  0.77034  1.0000
  O   O23       1.0  0.35429  0.32431  0.61470  1.0000
  H   H24       1.0  0.30751  0.35804  0.58688  1.0000
  H   H25       1.0  0.37245  0.16713  0.33993  1.0000
  H   H26       1.0  0.98972  0.02603  0.85944  1.0000
  O   O24       1.0  0.35428  0.46032  0.61469  1.0000
  H   H27       1.0  0.30745  0.42657  0.58690  1.0000
  H   H28       1.0  0.61625  0.33302  0.77041  1.0000
  O   O25       1.0  0.69117  0.08409  0.26543  1.0000
  H   H29       1.0  0.75702  0.08064  0.23169  1.0000
  O   O26       1.0  0.89968  0.95072  0.94819  1.0000
  H   H30       1.0  0.84638  0.91771  0.97247  1.0000
  O   O27       1.0  0.71180  0.88738  0.90429  1.0000
  H   H31       1.0  0.64298  0.86781  0.87933  1.0000
  H   H32       1.0  0.66623  0.08540  0.13807  1.0000
  O   O28       1.0  0.63422  0.01108  0.06355  1.0000
  H   H33       1.0  0.68099  0.98322  0.02979  1.0000
  H   H34       1.0  0.61654  0.02168  0.93620  1.0000
  H   H35       1.0  0.37269  0.16713  0.93630  1.0000
  O   O29       1.0  0.35488  0.17774  0.06367  1.0000
  H   H36       1.0  0.30817  0.20561  0.02995  1.0000
