data_image0
_chemical_formula_structural       Zn12O39C72H3O3C6H15
_chemical_formula_sum              "Zn12 O42 C78 H18"
_cell_length_a       16.1205
_cell_length_b       16.6255
_cell_length_c       16.6255
_cell_angle_alpha    90.0048
_cell_angle_beta     87.1133
_cell_angle_gamma    92.9266

_space_group_name_H-M_alt    "P 1"
_space_group_IT_number       1

loop_
  _space_group_symop_operation_xyz
  'x, y, z'

loop_
  _atom_site_type_symbol
  _atom_site_label
  _atom_site_symmetry_multiplicity
  _atom_site_fract_x
  _atom_site_fract_y
  _atom_site_fract_z
  _atom_site_occupancy
  Zn  Zn1       1.0  0.66796  0.21625  0.47217  1.0000
  Zn  Zn2       1.0  0.00129  0.54958  0.80551  1.0000
  Zn  Zn3       1.0  0.33462  0.88292  0.13884  1.0000
  Zn  Zn4       1.0  0.52858  0.20935  0.34417  1.0000
  Zn  Zn5       1.0  0.86191  0.54268  0.67750  1.0000
  Zn  Zn6       1.0  0.19524  0.87601  0.01084  1.0000
  Zn  Zn7       1.0  0.66797  0.08145  0.33735  1.0000
  Zn  Zn8       1.0  0.00130  0.41478  0.67069  1.0000
  Zn  Zn9       1.0  0.33464  0.74812  0.00402  1.0000
  Zn  Zn10      1.0  0.52858  0.07454  0.47896  1.0000
  Zn  Zn11      1.0  0.86191  0.40787  0.81229  1.0000
  Zn  Zn12      1.0  0.19524  0.74120  0.14563  1.0000
  O   O1        1.0  0.59827  0.14540  0.40816  1.0000
  O   O2        1.0  0.93160  0.47873  0.74150  1.0000
  O   O3        1.0  0.26494  0.81206  0.07483  1.0000
  O   O4        1.0  0.64946  0.32817  0.45521  1.0000
  O   O5        1.0  0.98279  0.66150  0.78854  1.0000
  O   O6        1.0  0.31613  0.99483  0.12187  1.0000
  O   O7        1.0  0.54707  0.19238  0.23043  1.0000
  O   O8        1.0  0.88040  0.52572  0.56377  1.0000
  O   O9        1.0  0.21374  0.85905  0.89710  1.0000
  O   O10       1.0  0.78464  0.10511  0.34955  1.0000
  O   O11       1.0  0.11797  0.43845  0.68288  1.0000
  O   O12       1.0  0.45130  0.77178  0.01621  1.0000
  O   O13       1.0  0.54706  0.32309  0.36116  1.0000
  O   O14       1.0  0.88039  0.65643  0.69450  1.0000
  O   O15       1.0  0.21372  0.98976  0.02783  1.0000
  O   O16       1.0  0.78463  0.20415  0.44860  1.0000
  O   O17       1.0  0.11796  0.53748  0.78193  1.0000
  O   O18       1.0  0.45129  0.87082  0.11526  1.0000
  O   O19       1.0  0.64948  0.09842  0.22543  1.0000
  O   O20       1.0  0.98282  0.43175  0.55876  1.0000
  O   O21       1.0  0.31615  0.76509  0.89209  1.0000
  O   O22       1.0  0.64949  0.96770  0.35613  1.0000
  O   O23       1.0  0.98282  0.30103  0.68946  1.0000
  O   O24       1.0  0.31615  0.63437  0.02279  1.0000
  O   O25       1.0  0.54706  0.09333  0.59089  1.0000
  O   O26       1.0  0.88040  0.42667  0.92422  1.0000
  O   O27       1.0  0.21373  0.76000  0.25756  1.0000
  O   O28       1.0  0.54708  0.96262  0.46016  1.0000
  O   O29       1.0  0.88041  0.29596  0.79350  1.0000
  O   O30       1.0  0.21374  0.62929  0.12683  1.0000
  O   O31       1.0  0.64946  0.19745  0.58591  1.0000
  O   O32       1.0  0.98280  0.53078  0.91924  1.0000
  O   O33       1.0  0.31613  0.86411  0.25257  1.0000
  O   O34       1.0  0.41191  0.18568  0.36774  1.0000
  O   O35       1.0  0.74524  0.51902  0.70107  1.0000
  O   O36       1.0  0.07858  0.85235  0.03441  1.0000
  O   O37       1.0  0.41191  0.08664  0.46677  1.0000
  O   O38       1.0  0.74524  0.41997  0.80010  1.0000
  O   O39       1.0  0.07858  0.75330  0.13344  1.0000
  C   C1        1.0  0.38166  0.13468  0.41875  1.0000
  C   C2        1.0  0.71499  0.46802  0.75208  1.0000
  C   C3        1.0  0.04833  0.80135  0.08542  1.0000
  C   C4        1.0  0.28899  0.13017  0.42330  1.0000
  C   C5        1.0  0.62232  0.46351  0.75664  1.0000
  C   C6        1.0  0.95566  0.79684  0.08997  1.0000
  C   C7        1.0  0.59828  0.93590  0.40814  1.0000
  C   C8        1.0  0.93161  0.26924  0.74147  1.0000
  C   C9        1.0  0.26495  0.60257  0.07481  1.0000
  C   C10       1.0  0.59827  0.84628  0.40815  1.0000
  C   C11       1.0  0.93160  0.17962  0.74148  1.0000
  C   C12       1.0  0.26493  0.51295  0.07482  1.0000
  C   C13       1.0  0.59826  0.14539  0.61847  1.0000
  C   C14       1.0  0.93159  0.47872  0.95181  1.0000
  C   C15       1.0  0.26493  0.81206  0.28514  1.0000
  C   C16       1.0  0.59826  0.14539  0.70810  1.0000
  C   C17       1.0  0.93159  0.47872  0.04143  1.0000
  C   C18       1.0  0.26492  0.81205  0.37476  1.0000
  C   C19       1.0  0.11933  0.12194  0.43164  1.0000
  C   C20       1.0  0.45266  0.45528  0.76497  1.0000
  C   C21       1.0  0.78599  0.78861  0.09830  1.0000
  C   C22       1.0  0.07805  0.16899  0.38470  1.0000
  C   C23       1.0  0.41139  0.50232  0.71804  1.0000
  C   C24       1.0  0.74472  0.83566  0.05137  1.0000
  C   C25       1.0  0.98365  0.16441  0.38934  1.0000
  C   C26       1.0  0.31698  0.49775  0.72267  1.0000
  C   C27       1.0  0.65031  0.83108  0.05601  1.0000
  C   C28       1.0  0.21374  0.12652  0.42700  1.0000
  C   C29       1.0  0.54708  0.45986  0.76033  1.0000
  C   C30       1.0  0.88041  0.79319  0.09367  1.0000
  C   C31       1.0  0.81573  0.15617  0.39756  1.0000
  C   C32       1.0  0.14906  0.48951  0.73089  1.0000
  C   C33       1.0  0.48240  0.82284  0.06422  1.0000
  C   C34       1.0  0.90840  0.16077  0.39304  1.0000
  C   C35       1.0  0.24173  0.49410  0.72637  1.0000
  C   C36       1.0  0.57506  0.82743  0.05970  1.0000
  C   C37       1.0  0.59826  0.51811  0.40819  1.0000
  C   C38       1.0  0.93160  0.85144  0.74152  1.0000
  C   C39       1.0  0.26493  0.18477  0.07485  1.0000
  C   C40       1.0  0.59827  0.60942  0.40817  1.0000
  C   C41       1.0  0.93160  0.94275  0.74151  1.0000
  C   C42       1.0  0.26493  0.27608  0.07484  1.0000
  C   C43       1.0  0.59826  0.68219  0.40817  1.0000
  C   C44       1.0  0.93160  0.01553  0.74150  1.0000
  C   C45       1.0  0.26493  0.34886  0.07483  1.0000
  C   C46       1.0  0.59827  0.77351  0.40816  1.0000
  C   C47       1.0  0.93160  0.10684  0.74149  1.0000
  C   C48       1.0  0.26493  0.44017  0.07482  1.0000
  C   C49       1.0  0.59826  0.35570  0.40819  1.0000
  C   C50       1.0  0.93159  0.68904  0.74152  1.0000
  C   C51       1.0  0.26492  0.02237  0.07485  1.0000
  C   C52       1.0  0.59825  0.44532  0.40820  1.0000
  C   C53       1.0  0.93159  0.77866  0.74153  1.0000
  C   C54       1.0  0.26492  0.11199  0.07486  1.0000
  C   C55       1.0  0.59825  0.14538  0.78088  1.0000
  C   C56       1.0  0.93159  0.47872  0.11421  1.0000
  C   C57       1.0  0.26492  0.81205  0.44754  1.0000
  C   C58       1.0  0.59826  0.14538  0.87219  1.0000
  C   C59       1.0  0.93159  0.47872  0.20552  1.0000
  C   C60       1.0  0.26492  0.81205  0.53885  1.0000
  C   C61       1.0  0.59826  0.14539  0.94496  1.0000
  C   C62       1.0  0.93160  0.47872  0.27829  1.0000
  C   C63       1.0  0.26493  0.81205  0.61163  1.0000
  C   C64       1.0  0.59827  0.14539  0.03628  1.0000
  C   C65       1.0  0.93160  0.47872  0.36961  1.0000
  C   C66       1.0  0.26493  0.81205  0.70294  1.0000
  C   C67       1.0  0.59826  0.14539  0.19867  1.0000
  C   C68       1.0  0.93160  0.47873  0.53201  1.0000
  C   C69       1.0  0.26493  0.81206  0.86534  1.0000
  C   C70       1.0  0.59827  0.14539  0.10905  1.0000
  C   C71       1.0  0.93161  0.47873  0.44239  1.0000
  C   C72       1.0  0.26494  0.81206  0.77572  1.0000
  H   H1        1.0  0.11362  0.21270  0.34104  1.0000
  H   H2        1.0  0.44696  0.54604  0.67437  1.0000
  H   H3        1.0  0.78029  0.87937  0.00771  1.0000
  O   O40       1.0  0.07677  0.06981  0.48365  1.0000
  O   O41       1.0  0.41011  0.40314  0.81698  1.0000
  O   O42       1.0  0.74344  0.73648  0.15032  1.0000
  C   C73       1.0  0.94250  0.01772  0.53580  1.0000
  C   C74       1.0  0.27584  0.35105  0.86913  1.0000
  C   C75       1.0  0.60917  0.68438  0.20246  1.0000
  C   C76       1.0  0.99060  0.07678  0.47685  1.0000
  C   C77       1.0  0.32394  0.41012  0.81018  1.0000
  C   C78       1.0  0.65727  0.74345  0.14352  1.0000
  H   H4        1.0  0.87283  0.02334  0.53033  1.0000
  H   H5        1.0  0.20616  0.35668  0.86366  1.0000
  H   H6        1.0  0.53949  0.69001  0.19700  1.0000
  H   H7        1.0  0.95943  0.95350  0.52075  1.0000
  H   H8        1.0  0.29277  0.28683  0.85409  1.0000
  H   H9        1.0  0.62610  0.62017  0.18742  1.0000
  H   H10       1.0  0.95965  0.03262  0.59999  1.0000
  H   H11       1.0  0.29298  0.36595  0.93333  1.0000
  H   H12       1.0  0.62631  0.69928  0.26666  1.0000
  H   H13       1.0  0.97348  0.06195  0.41263  1.0000
  H   H14       1.0  0.30682  0.39529  0.74596  1.0000
  H   H15       1.0  0.64015  0.72862  0.07930  1.0000
  H   H16       1.0  0.97367  0.14098  0.49196  1.0000
  H   H17       1.0  0.30700  0.47431  0.82529  1.0000
  H   H18       1.0  0.64034  0.80765  0.15863  1.0000
