data_image0
_chemical_formula_structural       Zn8O26C96H6C2N2C2N2H8C2N2H2C2N2C2N2C2N2C2N2C2N2H4C2N2H4C2N2H4C2N2C2N2C2N2H6
_chemical_formula_sum              "Zn8 O26 C122 H34 N26"
_cell_length_a       19.1213
_cell_length_b       19.1211
_cell_length_c       19.1209
_cell_angle_alpha    85.2584
_cell_angle_beta     85.0361
_cell_angle_gamma    89.9268

_space_group_name_H-M_alt    "P 1"
_space_group_IT_number       1

loop_
  _space_group_symop_operation_xyz
  'x, y, z'

loop_
  _atom_site_type_symbol
  _atom_site_label
  _atom_site_symmetry_multiplicity
  _atom_site_fract_x
  _atom_site_fract_y
  _atom_site_fract_z
  _atom_site_occupancy
  Zn  Zn1       1.0  0.04350  0.66022  0.36704  1.0000
  Zn  Zn2       1.0  0.54350  0.16021  0.86704  1.0000
  Zn  Zn3       1.0  0.04341  0.54757  0.25439  1.0000
  Zn  Zn4       1.0  0.54341  0.04757  0.75439  1.0000
  Zn  Zn5       1.0  0.93129  0.66980  0.25399  1.0000
  Zn  Zn6       1.0  0.43129  0.16980  0.75399  1.0000
  Zn  Zn7       1.0  0.92078  0.54761  0.37703  1.0000
  Zn  Zn8       1.0  0.42078  0.04761  0.87703  1.0000
  O   O1        1.0  0.98474  0.60630  0.31311  1.0000
  O   O2        1.0  0.48474  0.10630  0.81311  1.0000
  O   O3        1.0  0.14177  0.64125  0.34808  1.0000
  O   O4        1.0  0.64177  0.14124  0.84808  1.0000
  O   O5        1.0  0.03290  0.56778  0.15570  1.0000
  O   O6        1.0  0.53290  0.06778  0.65570  1.0000
  O   O7        1.0  0.95061  0.76681  0.26463  1.0000
  O   O8        1.0  0.45061  0.26681  0.76463  1.0000
  O   O9        1.0  0.14170  0.55849  0.26532  1.0000
  O   O10       1.0  0.64170  0.05849  0.76532  1.0000
  O   O11       1.0  0.03305  0.75977  0.34769  1.0000
  O   O12       1.0  0.53305  0.25977  0.84769  1.0000
  O   O13       1.0  0.95052  0.65759  0.15540  1.0000
  O   O14       1.0  0.45052  0.15759  0.65540  1.0000
  O   O15       1.0  0.83162  0.65762  0.27432  1.0000
  O   O16       1.0  0.33162  0.15762  0.77432  1.0000
  O   O17       1.0  0.93270  0.55855  0.47435  1.0000
  O   O18       1.0  0.43270  0.05855  0.97435  1.0000
  O   O19       1.0  0.82390  0.56784  0.36473  1.0000
  O   O20       1.0  0.32390  0.06784  0.86473  1.0000
  O   O21       1.0  0.02286  0.64128  0.46700  1.0000
  O   O22       1.0  0.52286  0.14128  0.96700  1.0000
  O   O23       1.0  0.02271  0.44929  0.27502  1.0000
  O   O24       1.0  0.52271  0.94929  0.77502  1.0000
  O   O25       1.0  0.93262  0.44932  0.36512  1.0000
  O   O26       1.0  0.43262  0.94932  0.86512  1.0000
  C   C1        1.0  0.80227  0.61378  0.32056  1.0000
  C   C2        1.0  0.30227  0.11378  0.82056  1.0000
  C   C3        1.0  0.72421  0.61696  0.32377  1.0000
  C   C4        1.0  0.22421  0.11696  0.82377  1.0000
  C   C5        1.0  0.68751  0.57544  0.28212  1.0000
  C   C6        1.0  0.18750  0.07544  0.78212  1.0000
  C   C7        1.0  0.61416  0.57843  0.28514  1.0000
  C   C8        1.0  0.11415  0.07843  0.78514  1.0000
  C   C9        1.0  0.57751  0.62294  0.32981  1.0000
  C   C10       1.0  0.07751  0.12294  0.82981  1.0000
  C   C11       1.0  0.61422  0.66446  0.37147  1.0000
  C   C12       1.0  0.11422  0.16446  0.87147  1.0000
  C   C13       1.0  0.68757  0.66146  0.36845  1.0000
  C   C14       1.0  0.18757  0.16146  0.86845  1.0000
  C   C15       1.0  0.35605  0.63412  0.34109  1.0000
  C   C16       1.0  0.85605  0.13412  0.84108  1.0000
  C   C17       1.0  0.28270  0.63711  0.34410  1.0000
  C   C18       1.0  0.78270  0.13711  0.84410  1.0000
  C   C19       1.0  0.28264  0.55108  0.25777  1.0000
  C   C20       1.0  0.78263  0.05108  0.75777  1.0000
  C   C21       1.0  0.35598  0.54810  0.25475  1.0000
  C   C22       1.0  0.85598  0.04810  0.75475  1.0000
  C   C23       1.0  0.39269  0.58961  0.29641  1.0000
  C   C24       1.0  0.89269  0.08961  0.79641  1.0000
  C   C25       1.0  0.50254  0.62599  0.33290  1.0000
  C   C26       1.0  0.00254  0.12599  0.83290  1.0000
  C   C27       1.0  0.46766  0.58655  0.29333  1.0000
  C   C28       1.0  0.96766  0.08655  0.79333  1.0000
  C   C29       1.0  0.97653  0.42382  0.32121  1.0000
  C   C30       1.0  0.47653  0.92382  0.82121  1.0000
  C   C31       1.0  0.97308  0.34576  0.32470  1.0000
  C   C32       1.0  0.47308  0.84576  0.82470  1.0000
  C   C33       1.0  0.01840  0.30909  0.27946  1.0000
  C   C34       1.0  0.51840  0.80909  0.77946  1.0000
  C   C35       1.0  0.01516  0.23573  0.28274  1.0000
  C   C36       1.0  0.51516  0.73573  0.78274  1.0000
  C   C37       1.0  0.96660  0.19905  0.33126  1.0000
  C   C38       1.0  0.46660  0.69905  0.83126  1.0000
  C   C39       1.0  0.92127  0.23572  0.37650  1.0000
  C   C40       1.0  0.42127  0.73572  0.87650  1.0000
  C   C41       1.0  0.92452  0.30908  0.37322  1.0000
  C   C42       1.0  0.42452  0.80908  0.87322  1.0000
  C   C43       1.0  0.95445  0.97757  0.34351  1.0000
  C   C44       1.0  0.45445  0.47758  0.84351  1.0000
  C   C45       1.0  0.95121  0.90422  0.34678  1.0000
  C   C46       1.0  0.45121  0.40422  0.84678  1.0000
  C   C47       1.0  0.04510  0.90423  0.25302  1.0000
  C   C48       1.0  0.54510  0.40423  0.75302  1.0000
  C   C49       1.0  0.04834  0.97758  0.24974  1.0000
  C   C50       1.0  0.54833  0.47759  0.74974  1.0000
  C   C51       1.0  0.00302  0.01425  0.29499  1.0000
  C   C52       1.0  0.50302  0.51425  0.79499  1.0000
  C   C53       1.0  0.96328  0.12407  0.33461  1.0000
  C   C54       1.0  0.46328  0.62407  0.83461  1.0000
  C   C55       1.0  0.00634  0.08923  0.29164  1.0000
  C   C56       1.0  0.50634  0.58923  0.79164  1.0000
  C   C57       1.0  0.16793  0.59879  0.30563  1.0000
  C   C58       1.0  0.66793  0.09879  0.80563  1.0000
  C   C59       1.0  0.24599  0.59559  0.30244  1.0000
  C   C60       1.0  0.74599  0.09559  0.80244  1.0000
  C   C61       1.0  0.97662  0.59885  0.49697  1.0000
  C   C62       1.0  0.47662  0.09885  0.99697  1.0000
  C   C63       1.0  0.97315  0.59567  0.57531  1.0000
  C   C64       1.0  0.47315  0.09567  0.07531  1.0000
  C   C65       1.0  0.99301  0.78949  0.30500  1.0000
  C   C66       1.0  0.49301  0.28949  0.80500  1.0000
  C   C67       1.0  0.99653  0.86755  0.30154  1.0000
  C   C68       1.0  0.49653  0.36755  0.80154  1.0000
  C   C69       1.0  0.99288  0.61377  0.12997  1.0000
  C   C70       1.0  0.49288  0.11377  0.62997  1.0000
  C   C71       1.0  0.99649  0.61714  0.05161  1.0000
  C   C72       1.0  0.49649  0.11714  0.55161  1.0000
  C   C73       1.0  0.01846  0.63725  0.60830  1.0000
  C   C74       1.0  0.51846  0.13725  0.10830  1.0000
  C   C75       1.0  0.01520  0.63427  0.68192  1.0000
  C   C76       1.0  0.51520  0.13427  0.18192  1.0000
  C   C77       1.0  0.96663  0.58970  0.72254  1.0000
  C   C78       1.0  0.46663  0.08971  0.22254  1.0000
  C   C79       1.0  0.92131  0.54812  0.68956  1.0000
  C   C80       1.0  0.42132  0.04812  0.18955  1.0000
  C   C81       1.0  0.92458  0.55111  0.61594  1.0000
  C   C82       1.0  0.42457  0.05111  0.11594  1.0000
  C   C83       1.0  0.95444  0.57854  0.94500  1.0000
  C   C84       1.0  0.45444  0.07854  0.44501  1.0000
  C   C85       1.0  0.95118  0.57556  0.01862  1.0000
  C   C86       1.0  0.45118  0.07556  0.51862  1.0000
  C   C87       1.0  0.04507  0.66171  0.01098  1.0000
  C   C88       1.0  0.54507  0.16171  0.51098  1.0000
  C   C89       1.0  0.04833  0.66469  0.93736  1.0000
  C   C90       1.0  0.54833  0.16468  0.43736  1.0000
  C   C91       1.0  0.00301  0.62311  0.90438  1.0000
  C   C92       1.0  0.50301  0.12311  0.40438  1.0000
  C   C93       1.0  0.96330  0.58666  0.79779  1.0000
  C   C94       1.0  0.46330  0.08666  0.29779  1.0000
  C   C95       1.0  0.00634  0.62616  0.82913  1.0000
  C   C96       1.0  0.50634  0.12616  0.32913  1.0000
  H   H1        1.0  0.71733  0.53920  0.24574  1.0000
  H   H2        1.0  0.21733  0.03920  0.74574  1.0000
  H   H3        1.0  0.05802  0.67354  0.57522  1.0000
  H   H4        1.0  0.55802  0.17354  0.07522  1.0000
  H   H5        1.0  0.05210  0.66813  0.70877  1.0000
  H   H6        1.0  0.55210  0.16813  0.20877  1.0000
  C   C97       1.0  0.86788  0.49911  0.73425  1.0000
  C   C98       1.0  0.36788  0.99911  0.23425  1.0000
  N   N1        1.0  0.82763  0.46219  0.76791  1.0000
  N   N2        1.0  0.32763  0.96219  0.26791  1.0000
  C   C99       1.0  0.90985  0.08371  0.38797  1.0000
  C   C100      1.0  0.40985  0.58371  0.88797  1.0000
  N   N3        1.0  0.86961  0.05332  0.42816  1.0000
  N   N4        1.0  0.36961  0.55332  0.92816  1.0000
  H   H7        1.0  0.08788  0.70097  0.90429  1.0000
  H   H8        1.0  0.58788  0.20097  0.40429  1.0000
  H   H9        1.0  0.05794  0.33895  0.23994  1.0000
  H   H10       1.0  0.55794  0.83895  0.73994  1.0000
  H   H11       1.0  0.91754  0.54467  0.91816  1.0000
  H   H12       1.0  0.41755  0.04467  0.41816  1.0000
  H   H13       1.0  0.88173  0.20585  0.41601  1.0000
  H   H14       1.0  0.38173  0.70585  0.91601  1.0000
  C   C101      1.0  0.89779  0.86387  0.40016  1.0000
  C   C102      1.0  0.39779  0.36387  0.90016  1.0000
  N   N5        1.0  0.85755  0.83348  0.44037  1.0000
  N   N6        1.0  0.35755  0.33348  0.94036  1.0000
  H   H15       1.0  0.25286  0.67336  0.38047  1.0000
  H   H16       1.0  0.75286  0.17336  0.88047  1.0000
  C   C103      1.0  0.87466  0.34941  0.42299  1.0000
  C   C104      1.0  0.37466  0.84941  0.92299  1.0000
  N   N7        1.0  0.83711  0.37979  0.46048  1.0000
  N   N8        1.0  0.33711  0.87979  0.96048  1.0000
  C   C105      1.0  0.05977  0.67518  0.78444  1.0000
  C   C106      1.0  0.55977  0.17518  0.28444  1.0000
  N   N9        1.0  0.10001  0.71210  0.75077  1.0000
  N   N10       1.0  0.60001  0.21210  0.25077  1.0000
  C   C107      1.0  0.09491  0.70745  0.04727  1.0000
  C   C108      1.0  0.59491  0.20745  0.54727  1.0000
  N   N11       1.0  0.13244  0.74191  0.07460  1.0000
  N   N12       1.0  0.63244  0.24191  0.57460  1.0000
  C   C109      1.0  0.39641  0.67980  0.38690  1.0000
  C   C110      1.0  0.89641  0.17980  0.88690  1.0000
  N   N13       1.0  0.42682  0.71421  0.42141  1.0000
  N   N14       1.0  0.92682  0.21421  0.92141  1.0000
  C   C111      1.0  0.89775  0.52653  0.06332  1.0000
  C   C112      1.0  0.39774  0.02653  0.56332  1.0000
  N   N15       1.0  0.85750  0.48961  0.09698  1.0000
  N   N16       1.0  0.35750  0.98961  0.59698  1.0000
  H   H17       1.0  0.92375  0.55037  0.83088  1.0000
  H   H18       1.0  0.42375  0.05037  0.33088  1.0000
  H   H19       1.0  0.58438  0.70069  0.40784  1.0000
  H   H20       1.0  0.08438  0.20069  0.90784  1.0000
  C   C113      1.0  0.39629  0.49913  0.20561  1.0000
  C   C114      1.0  0.89629  0.99913  0.70561  1.0000
  N   N17       1.0  0.42664  0.46225  0.16859  1.0000
  N   N18       1.0  0.92664  0.96225  0.66859  1.0000
  H   H21       1.0  0.04588  0.11910  0.25213  1.0000
  H   H22       1.0  0.54588  0.61910  0.75213  1.0000
  H   H23       1.0  0.58427  0.54462  0.25122  1.0000
  H   H24       1.0  0.08427  0.04462  0.75122  1.0000
  C   C115      1.0  0.87473  0.50536  0.57966  1.0000
  C   C116      1.0  0.37473  0.00536  0.07966  1.0000
  N   N19       1.0  0.83718  0.47091  0.55233  1.0000
  N   N20       1.0  0.33719  0.97091  0.05233  1.0000
  H   H25       1.0  0.25274  0.51728  0.22385  1.0000
  H   H26       1.0  0.75274  0.01728  0.72385  1.0000
  H   H27       1.0  0.49750  0.55031  0.25696  1.0000
  H   H28       1.0  0.99750  0.05031  0.75696  1.0000
  C   C117      1.0  0.06501  0.19540  0.23297  1.0000
  C   C118      1.0  0.56501  0.69540  0.73297  1.0000
  N   N21       1.0  0.10256  0.16502  0.19548  1.0000
  N   N22       1.0  0.60256  0.66502  0.69548  1.0000
  C   C119      1.0  0.72794  0.70714  0.41427  1.0000
  C   C120      1.0  0.22794  0.20714  0.91427  1.0000
  N   N23       1.0  0.75835  0.74154  0.44878  1.0000
  N   N24       1.0  0.25835  0.24154  0.94878  1.0000
  C   C121      1.0  0.10174  0.01793  0.19635  1.0000
  C   C122      1.0  0.60174  0.51793  0.69635  1.0000
  N   N25       1.0  0.14196  0.04832  0.15613  1.0000
  N   N26       1.0  0.64196  0.54832  0.65613  1.0000
  H   H29       1.0  0.08199  0.87437  0.21618  1.0000
  H   H30       1.0  0.58199  0.37437  0.71618  1.0000
  H   H31       1.0  0.47269  0.66223  0.36927  1.0000
  H   H32       1.0  0.97269  0.16223  0.86927  1.0000
  H   H33       1.0  0.91755  0.00743  0.38035  1.0000
  H   H34       1.0  0.41755  0.50743  0.88035  1.0000
