data_image0
_chemical_formula_structural       Zn8O26C76H2F2H2F2H6F2H4F6H2F6H6
_chemical_formula_sum              "Zn8 O26 C76 H22 F18"
_cell_length_a       12.8279
_cell_length_b       19.8054
_cell_length_c       19.8054
_cell_angle_alpha    89.9804
_cell_angle_beta     90.0225
_cell_angle_gamma    89.9846

_space_group_name_H-M_alt    "P 1"
_space_group_IT_number       1

loop_
  _space_group_symop_operation_xyz
  'x, y, z'

loop_
  _atom_site_type_symbol
  _atom_site_label
  _atom_site_symmetry_multiplicity
  _atom_site_fract_x
  _atom_site_fract_y
  _atom_site_fract_z
  _atom_site_occupancy
  Zn  Zn1       1.0  0.58394  0.96521  0.38274  1.0000
  Zn  Zn2       1.0  0.08394  0.46521  0.88274  1.0000
  Zn  Zn3       1.0  0.40919  0.96528  0.26956  1.0000
  Zn  Zn4       1.0  0.90919  0.46528  0.76957  1.0000
  Zn  Zn5       1.0  0.58391  0.07840  0.26957  1.0000
  Zn  Zn6       1.0  0.08391  0.57840  0.76957  1.0000
  Zn  Zn7       1.0  0.40924  0.07841  0.38271  1.0000
  Zn  Zn8       1.0  0.90924  0.57841  0.88271  1.0000
  O   O1        1.0  0.49657  0.02183  0.32615  1.0000
  O   O2        1.0  0.99657  0.52182  0.82615  1.0000
  O   O3        1.0  0.56075  0.87050  0.36774  1.0000
  O   O4        1.0  0.06075  0.37050  0.86774  1.0000
  O   O5        1.0  0.43233  0.98030  0.17485  1.0000
  O   O6        1.0  0.93233  0.48030  0.67485  1.0000
  O   O7        1.0  0.73015  0.06335  0.28459  1.0000
  O   O8        1.0  0.23015  0.56335  0.78460  1.0000
  O   O9        1.0  0.43236  0.87055  0.28459  1.0000
  O   O10       1.0  0.93236  0.37055  0.78459  1.0000
  O   O11       1.0  0.73018  0.98019  0.36774  1.0000
  O   O12       1.0  0.23018  0.48019  0.86774  1.0000
  O   O13       1.0  0.56070  0.06341  0.17485  1.0000
  O   O14       1.0  0.06070  0.56341  0.67485  1.0000
  O   O15       1.0  0.56076  0.17312  0.28457  1.0000
  O   O16       1.0  0.06076  0.67312  0.78456  1.0000
  O   O17       1.0  0.43245  0.06338  0.47743  1.0000
  O   O18       1.0  0.93245  0.56338  0.97743  1.0000
  O   O19       1.0  0.43242  0.17313  0.36769  1.0000
  O   O20       1.0  0.93243  0.67313  0.86769  1.0000
  O   O21       1.0  0.56080  0.98021  0.47746  1.0000
  O   O22       1.0  0.06080  0.48021  0.97746  1.0000
  O   O23       1.0  0.26296  0.98032  0.28456  1.0000
  O   O24       1.0  0.76296  0.48032  0.78456  1.0000
  O   O25       1.0  0.26300  0.06344  0.36769  1.0000
  O   O26       1.0  0.76300  0.56344  0.86769  1.0000
  C   C1        1.0  0.22506  0.02187  0.32614  1.0000
  C   C2        1.0  0.72506  0.52187  0.82613  1.0000
  C   C3        1.0  0.10891  0.02182  0.32615  1.0000
  C   C4        1.0  0.60891  0.52182  0.82615  1.0000
  C   C5        1.0  0.49659  0.19768  0.32612  1.0000
  C   C6        1.0  0.99659  0.69768  0.82612  1.0000
  C   C7        1.0  0.49658  0.27291  0.32613  1.0000
  C   C8        1.0  0.99657  0.77291  0.82613  1.0000
  C   C9        1.0  0.49664  0.02179  0.50269  1.0000
  C   C10       1.0  0.99664  0.52179  0.00269  1.0000
  C   C11       1.0  0.49667  0.02177  0.57792  1.0000
  C   C12       1.0  0.99667  0.52177  0.07792  1.0000
  C   C13       1.0  0.05714  0.98064  0.28506  1.0000
  C   C14       1.0  0.55714  0.48064  0.78506  1.0000
  C   C15       1.0  0.93709  0.98060  0.28508  1.0000
  C   C16       1.0  0.43709  0.48060  0.78508  1.0000
  C   C17       1.0  0.76914  0.02176  0.32617  1.0000
  C   C18       1.0  0.26914  0.52176  0.82617  1.0000
  C   C19       1.0  0.88529  0.02174  0.32619  1.0000
  C   C20       1.0  0.38529  0.52174  0.82618  1.0000
  C   C21       1.0  0.49655  0.84528  0.32617  1.0000
  C   C22       1.0  0.99655  0.34528  0.82617  1.0000
  C   C23       1.0  0.49654  0.77005  0.32618  1.0000
  C   C24       1.0  0.99654  0.27005  0.82618  1.0000
  C   C25       1.0  0.42965  0.30824  0.36935  1.0000
  C   C26       1.0  0.92965  0.80824  0.86935  1.0000
  C   C27       1.0  0.42965  0.37893  0.36935  1.0000
  C   C28       1.0  0.92965  0.87893  0.86935  1.0000
  C   C29       1.0  0.49657  0.41429  0.32615  1.0000
  C   C30       1.0  0.99657  0.91429  0.82615  1.0000
  C   C31       1.0  0.56350  0.37895  0.28293  1.0000
  C   C32       1.0  0.06350  0.87895  0.78293  1.0000
  C   C33       1.0  0.56350  0.30826  0.28293  1.0000
  C   C34       1.0  0.06350  0.80826  0.78293  1.0000
  C   C35       1.0  0.56347  0.66402  0.28295  1.0000
  C   C36       1.0  0.06347  0.16403  0.78295  1.0000
  C   C37       1.0  0.56346  0.73472  0.28296  1.0000
  C   C38       1.0  0.06346  0.23472  0.78296  1.0000
  C   C39       1.0  0.42962  0.73469  0.36938  1.0000
  C   C40       1.0  0.92962  0.23469  0.86938  1.0000
  C   C41       1.0  0.42963  0.66401  0.36938  1.0000
  C   C42       1.0  0.92963  0.16401  0.86938  1.0000
  C   C43       1.0  0.49656  0.62868  0.32616  1.0000
  C   C44       1.0  0.99656  0.12868  0.82617  1.0000
  C   C45       1.0  0.49656  0.55203  0.32616  1.0000
  C   C46       1.0  0.99656  0.05203  0.82616  1.0000
  C   C47       1.0  0.49656  0.49094  0.32615  1.0000
  C   C48       1.0  0.99656  0.99094  0.82615  1.0000
  C   C49       1.0  0.49658  0.02182  0.15029  1.0000
  C   C50       1.0  0.99658  0.52182  0.65029  1.0000
  C   C51       1.0  0.49685  0.02171  0.07506  1.0000
  C   C52       1.0  0.99685  0.52171  0.57506  1.0000
  C   C53       1.0  0.56350  0.97846  0.61328  1.0000
  C   C54       1.0  0.06350  0.47846  0.11328  1.0000
  C   C55       1.0  0.56353  0.97846  0.68397  1.0000
  C   C56       1.0  0.06353  0.47846  0.18397  1.0000
  C   C57       1.0  0.49672  0.02175  0.71930  1.0000
  C   C58       1.0  0.99672  0.52175  0.21930  1.0000
  C   C59       1.0  0.42988  0.06507  0.68393  1.0000
  C   C60       1.0  0.92988  0.56506  0.18393  1.0000
  C   C61       1.0  0.42986  0.06507  0.61325  1.0000
  C   C62       1.0  0.92986  0.56507  0.11325  1.0000
  C   C63       1.0  0.42998  0.06503  0.96901  1.0000
  C   C64       1.0  0.92998  0.56503  0.46901  1.0000
  C   C65       1.0  0.43001  0.06501  0.03970  1.0000
  C   C66       1.0  0.93001  0.56501  0.53970  1.0000
  C   C67       1.0  0.56365  0.97841  0.03973  1.0000
  C   C68       1.0  0.06365  0.47841  0.53973  1.0000
  C   C69       1.0  0.56363  0.97842  0.96904  1.0000
  C   C70       1.0  0.06363  0.47842  0.46904  1.0000
  C   C71       1.0  0.49680  0.02173  0.93369  1.0000
  C   C72       1.0  0.99679  0.52173  0.43369  1.0000
  C   C73       1.0  0.49676  0.02174  0.85704  1.0000
  C   C74       1.0  0.99676  0.52174  0.35704  1.0000
  C   C75       1.0  0.49674  0.02174  0.79595  1.0000
  C   C76       1.0  0.99674  0.52174  0.29594  1.0000
  H   H1        1.0  0.10169  0.94542  0.24987  1.0000
  H   H2        1.0  0.60169  0.44542  0.74987  1.0000
  F   F1        1.0  0.87890  0.93452  0.23910  1.0000
  F   F2        1.0  0.37890  0.43452  0.73910  1.0000
  H   H3        1.0  0.61808  0.94314  0.06852  1.0000
  H   H4        1.0  0.11808  0.44314  0.56852  1.0000
  F   F3        1.0  0.35885  0.11113  0.93139  1.0000
  F   F4        1.0  0.85885  0.61113  0.43139  1.0000
  H   H5        1.0  0.92981  0.05700  0.36136  1.0000
  H   H6        1.0  0.42981  0.55700  0.86136  1.0000
  H   H7        1.0  0.06435  0.05704  0.36135  1.0000
  H   H8        1.0  0.56435  0.55704  0.86135  1.0000
  H   H9        1.0  0.61795  0.94319  0.71275  1.0000
  H   H10       1.0  0.11795  0.44319  0.21275  1.0000
  F   F5        1.0  0.35843  0.27062  0.41533  1.0000
  F   F6        1.0  0.85843  0.77062  0.91533  1.0000
  H   H11       1.0  0.37513  0.76347  0.40457  1.0000
  H   H12       1.0  0.87513  0.26347  0.90457  1.0000
  H   H13       1.0  0.37516  0.40770  0.40454  1.0000
  H   H14       1.0  0.87516  0.90770  0.90454  1.0000
  F   F7        1.0  0.35840  0.62638  0.41536  1.0000
  F   F8        1.0  0.85840  0.12638  0.91536  1.0000
  F   F9        1.0  0.35889  0.11110  0.07730  1.0000
  F   F10       1.0  0.85889  0.61110  0.57730  1.0000
  F   F11       1.0  0.63468  0.77234  0.23697  1.0000
  F   F12       1.0  0.13468  0.27234  0.73697  1.0000
  H   H15       1.0  0.61797  0.63527  0.24776  1.0000
  H   H16       1.0  0.11797  0.13527  0.74776  1.0000
  F   F13       1.0  0.63472  0.41658  0.23695  1.0000
  F   F14       1.0  0.13472  0.91658  0.73695  1.0000
  F   F15       1.0  0.35878  0.11115  0.72154  1.0000
  F   F16       1.0  0.85878  0.61115  0.22154  1.0000
  F   F17       1.0  0.63474  0.93233  0.93144  1.0000
  F   F18       1.0  0.13473  0.43234  0.43144  1.0000
  H   H17       1.0  0.37544  0.10035  0.58446  1.0000
  H   H18       1.0  0.87544  0.60035  0.08446  1.0000
  H   H19       1.0  0.61800  0.27950  0.24774  1.0000
  H   H20       1.0  0.11800  0.77950  0.74774  1.0000
  H   H21       1.0  0.61790  0.94321  0.58452  1.0000
  H   H22       1.0  0.11790  0.44320  0.08452  1.0000
