data_image0
_chemical_formula_structural       VO4VO6C20HF4HFHVO4VO6C20HF4HFH
_chemical_formula_sum              "V4 O20 C40 H6 F10"
_cell_length_a       13.6358
_cell_length_b       9.58286
_cell_length_c       11.1022
_cell_angle_alpha    90.9761
_cell_angle_beta     108.604
_cell_angle_gamma    111.207

_space_group_name_H-M_alt    "P 1"
_space_group_IT_number       1

loop_
  _space_group_symop_operation_xyz
  'x, y, z'

loop_
  _atom_site_type_symbol
  _atom_site_label
  _atom_site_symmetry_multiplicity
  _atom_site_fract_x
  _atom_site_fract_y
  _atom_site_fract_z
  _atom_site_occupancy
  V   V1        1.0  0.43734  0.79293  0.60397  1.0000
  O   O1        1.0  0.46506  0.00994  0.61127  1.0000
  O   O2        1.0  0.44218  0.58943  0.60691  1.0000
  O   O3        1.0  0.44906  0.79611  0.43115  1.0000
  O   O4        1.0  0.45812  0.80183  0.78826  1.0000
  V   V2        1.0  0.19966  0.81889  0.62599  1.0000
  O   O5        1.0  0.29778  0.73600  0.55569  1.0000
  O   O6        1.0  0.11413  0.87583  0.67428  1.0000
  O   O7        1.0  0.30643  0.02239  0.62305  1.0000
  O   O8        1.0  0.11325  0.60189  0.61869  1.0000
  O   O9        1.0  0.12018  0.81000  0.44171  1.0000
  O   O10       1.0  0.29954  0.81571  0.79881  1.0000
  C   C1        1.0  0.01537  0.53982  0.61322  1.0000
  C   C2        1.0  0.47859  0.37346  0.61447  1.0000
  C   C3        1.0  0.02415  0.80347  0.38902  1.0000
  C   C4        1.0  0.49296  0.80472  0.24773  1.0000
  C   C5        1.0  0.42367  0.53062  0.21172  1.0000
  C   C6        1.0  0.37437  0.39416  0.12733  1.0000
  C   C7        1.0  0.34507  0.39535  0.99459  1.0000
  C   C8        1.0  0.36506  0.53301  0.94622  1.0000
  C   C9        1.0  0.41436  0.66946  0.03060  1.0000
  C   C10       1.0  0.44366  0.66826  0.16335  1.0000
  C   C11       1.0  0.48365  0.94356  0.06662  1.0000
  C   C12       1.0  0.01296  0.94238  0.19937  1.0000
  C   C13       1.0  0.00364  0.08122  0.01825  1.0000
  C   C14       1.0  0.05294  0.21768  0.10264  1.0000
  C   C15       1.0  0.08225  0.21649  0.23539  1.0000
  C   C16       1.0  0.06225  0.07884  0.28375  1.0000
  C   C17       1.0  0.40157  0.07199  0.61675  1.0000
  C   C18       1.0  0.44872  0.23836  0.61549  1.0000
  C   C19       1.0  0.39278  0.80835  0.84095  1.0000
  C   C20       1.0  0.43435  0.80711  0.98224  1.0000
  H   H1        1.0  0.44754  0.52964  0.31981  1.0000
  F   F1        1.0  0.29260  0.25012  0.90478  1.0000
  F   F2        1.0  0.35309  0.24766  0.17882  1.0000
  F   F3        1.0  0.33386  0.53426  0.80494  1.0000
  F   F4        1.0  0.13470  0.36173  0.32519  1.0000
  H   H2        1.0  0.47977  0.08218  0.91016  1.0000
  F   F5        1.0  0.09344  0.07756  0.42503  1.0000
  H   H3        1.0  0.06921  0.32975  0.06325  1.0000
  V   V3        1.0  0.93734  0.79293  0.60397  1.0000
  O   O11       1.0  0.96506  0.00994  0.61127  1.0000
  O   O12       1.0  0.94218  0.58943  0.60691  1.0000
  O   O13       1.0  0.94906  0.79611  0.43115  1.0000
  O   O14       1.0  0.95812  0.80183  0.78826  1.0000
  V   V4        1.0  0.69966  0.81889  0.62599  1.0000
  O   O15       1.0  0.79778  0.73600  0.55569  1.0000
  O   O16       1.0  0.61413  0.87583  0.67428  1.0000
  O   O17       1.0  0.80643  0.02239  0.62305  1.0000
  O   O18       1.0  0.61325  0.60189  0.61869  1.0000
  O   O19       1.0  0.62018  0.81000  0.44171  1.0000
  O   O20       1.0  0.79954  0.81571  0.79881  1.0000
  C   C21       1.0  0.51537  0.53982  0.61322  1.0000
  C   C22       1.0  0.97859  0.37346  0.61447  1.0000
  C   C23       1.0  0.52415  0.80347  0.38902  1.0000
  C   C24       1.0  0.99296  0.80472  0.24773  1.0000
  C   C25       1.0  0.92367  0.53062  0.21172  1.0000
  C   C26       1.0  0.87437  0.39416  0.12733  1.0000
  C   C27       1.0  0.84507  0.39535  0.99459  1.0000
  C   C28       1.0  0.86506  0.53301  0.94622  1.0000
  C   C29       1.0  0.91436  0.66946  0.03060  1.0000
  C   C30       1.0  0.94366  0.66826  0.16335  1.0000
  C   C31       1.0  0.98365  0.94356  0.06662  1.0000
  C   C32       1.0  0.51296  0.94238  0.19937  1.0000
  C   C33       1.0  0.50364  0.08122  0.01825  1.0000
  C   C34       1.0  0.55294  0.21768  0.10264  1.0000
  C   C35       1.0  0.58225  0.21649  0.23539  1.0000
  C   C36       1.0  0.56225  0.07884  0.28375  1.0000
  C   C37       1.0  0.90157  0.07199  0.61675  1.0000
  C   C38       1.0  0.94872  0.23836  0.61549  1.0000
  C   C39       1.0  0.89278  0.80835  0.84095  1.0000
  C   C40       1.0  0.93435  0.80711  0.98224  1.0000
  H   H4        1.0  0.94754  0.52964  0.31981  1.0000
  F   F6        1.0  0.79260  0.25012  0.90478  1.0000
  F   F7        1.0  0.85309  0.24766  0.17882  1.0000
  F   F8        1.0  0.83386  0.53426  0.80494  1.0000
  F   F9        1.0  0.63470  0.36173  0.32519  1.0000
  H   H5        1.0  0.97977  0.08218  0.91016  1.0000
  F   F10       1.0  0.59344  0.07756  0.42503  1.0000
  H   H6        1.0  0.56921  0.32975  0.06325  1.0000
