data_image0
_chemical_formula_structural       Zn4O13C26HOCH3OCH3OCH3OCH4
_chemical_formula_sum              "Zn4 O17 C30 H14"
_cell_length_a       16.6255
_cell_length_b       12.5945
_cell_length_c       16.6255
_cell_angle_alpha    89.9769
_cell_angle_beta     89.9787
_cell_angle_gamma    90.0118

_space_group_name_H-M_alt    "P 1"
_space_group_IT_number       1

loop_
  _space_group_symop_operation_xyz
  'x, y, z'

loop_
  _atom_site_type_symbol
  _atom_site_label
  _atom_site_symmetry_multiplicity
  _atom_site_fract_x
  _atom_site_fract_y
  _atom_site_fract_z
  _atom_site_occupancy
  Zn  Zn1       1.0  0.23271  0.57624  0.54398  1.0000
  Zn  Zn2       1.0  0.23265  0.39824  0.67881  1.0000
  Zn  Zn3       1.0  0.09788  0.57621  0.67881  1.0000
  Zn  Zn4       1.0  0.09787  0.39830  0.54403  1.0000
  O   O1        1.0  0.16528  0.48725  0.61141  1.0000
  O   O2        1.0  0.34554  0.55262  0.56184  1.0000
  O   O3        1.0  0.21475  0.42181  0.79164  1.0000
  O   O4        1.0  0.11580  0.72516  0.66091  1.0000
  O   O5        1.0  0.34549  0.42184  0.66090  1.0000
  O   O6        1.0  0.21486  0.72518  0.56185  1.0000
  O   O7        1.0  0.11574  0.55256  0.79164  1.0000
  O   O8        1.0  0.98505  0.55262  0.66095  1.0000
  O   O9        1.0  0.11578  0.42194  0.43119  1.0000
  O   O10       1.0  0.98504  0.42191  0.56193  1.0000
  O   O11       1.0  0.21485  0.55267  0.43115  1.0000
  O   O12       1.0  0.21474  0.24930  0.66094  1.0000
  O   O13       1.0  0.11572  0.24935  0.56192  1.0000
  C   C1        1.0  0.95579  0.48727  0.61144  1.0000
  C   C2        1.0  0.86617  0.48725  0.61144  1.0000
  C   C3        1.0  0.79338  0.48725  0.61143  1.0000
  C   C4        1.0  0.70208  0.48724  0.61141  1.0000
  C   C5        1.0  0.62930  0.48723  0.61139  1.0000
  C   C6        1.0  0.53799  0.48723  0.61137  1.0000
  C   C7        1.0  0.16524  0.21071  0.61142  1.0000
  C   C8        1.0  0.16530  0.09240  0.61140  1.0000
  C   C9        1.0  0.21922  0.02316  0.66520  1.0000
  C   C10       1.0  0.23892  0.95246  0.59160  1.0000
  C   C11       1.0  0.14570  0.95231  0.68495  1.0000
  C   C12       1.0  0.18504  0.02326  0.53776  1.0000
  C   C13       1.0  0.09178  0.02311  0.63116  1.0000
  C   C14       1.0  0.11145  0.95244  0.55751  1.0000
  C   C15       1.0  0.37559  0.48723  0.61137  1.0000
  C   C16       1.0  0.46521  0.48722  0.61135  1.0000
  C   C17       1.0  0.16532  0.48732  0.40110  1.0000
  C   C18       1.0  0.16534  0.48735  0.31147  1.0000
  C   C19       1.0  0.16534  0.76487  0.61137  1.0000
  C   C20       1.0  0.16536  0.88317  0.61136  1.0000
  C   C21       1.0  0.16535  0.48737  0.23869  1.0000
  C   C22       1.0  0.16537  0.48741  0.14738  1.0000
  C   C23       1.0  0.16539  0.48745  0.07461  1.0000
  C   C24       1.0  0.16541  0.48749  0.98329  1.0000
  C   C25       1.0  0.16528  0.48725  0.82090  1.0000
  C   C26       1.0  0.16542  0.48752  0.91052  1.0000
  H   H1        1.0  0.30112  0.92142  0.57487  1.0000
  O   O14       1.0  0.05699  0.91574  0.50321  1.0000
  C   C27       1.0  0.97973  0.95331  0.52353  1.0000
  H   H2        1.0  0.98556  0.02820  0.56157  1.0000
  H   H3        1.0  0.94489  0.97229  0.46626  1.0000
  H   H4        1.0  0.94627  0.88981  0.55920  1.0000
  O   O15       1.0  0.27373  0.06017  0.71934  1.0000
  C   C28       1.0  0.35119  0.02415  0.69819  1.0000
  H   H5        1.0  0.35268  0.00435  0.63130  1.0000
  H   H6        1.0  0.39718  0.08892  0.71160  1.0000
  H   H7        1.0  0.36636  0.95006  0.73456  1.0000
  O   O16       1.0  0.20496  0.06044  0.46358  1.0000
  C   C29       1.0  0.20469  0.17239  0.46450  1.0000
  H   H8        1.0  0.21369  0.20164  0.52875  1.0000
  H   H9        1.0  0.25552  0.20337  0.42487  1.0000
  H   H10       1.0  0.14466  0.20266  0.44061  1.0000
  O   O17       1.0  0.01763  0.06012  0.65129  1.0000
  C   C30       1.0  0.99715  0.02401  0.72892  1.0000
  H   H11       1.0  0.05432  0.00415  0.76365  1.0000
  H   H12       1.0  0.96253  0.08875  0.76204  1.0000
  H   H13       1.0  0.95806  0.94994  0.72386  1.0000
  H   H14       1.0  0.12910  0.92114  0.74716  1.0000
