data_image0
_chemical_formula_structural       Zn16O52C168H4Cl4H12Cl8H4Cl4H28Cl8H12Cl4H4Cl4H20Cl8H4
_chemical_formula_sum              "Zn16 O52 C168 H88 Cl40"
_cell_length_a       17.0774
_cell_length_b       18.1014
_cell_length_c       18.1014
_cell_angle_alpha    90.0171
_cell_angle_beta     90.0077
_cell_angle_gamma    90.0313

_space_group_name_H-M_alt    "P 1"
_space_group_IT_number       1

loop_
  _space_group_symop_operation_xyz
  'x, y, z'

loop_
  _atom_site_type_symbol
  _atom_site_label
  _atom_site_symmetry_multiplicity
  _atom_site_fract_x
  _atom_site_fract_y
  _atom_site_fract_z
  _atom_site_occupancy
  Zn  Zn1       1.0  0.19992  0.70510  0.41874  1.0000
  Zn  Zn2       1.0  0.44992  0.95510  0.66874  1.0000
  Zn  Zn3       1.0  0.69992  0.20510  0.91874  1.0000
  Zn  Zn4       1.0  0.94992  0.45510  0.16874  1.0000
  Zn  Zn5       1.0  0.19983  0.58127  0.29490  1.0000
  Zn  Zn6       1.0  0.44983  0.83127  0.54490  1.0000
  Zn  Zn7       1.0  0.69983  0.08127  0.79490  1.0000
  Zn  Zn8       1.0  0.94983  0.33127  0.04490  1.0000
  Zn  Zn9       1.0  0.06868  0.70510  0.29491  1.0000
  Zn  Zn10      1.0  0.31868  0.95510  0.54491  1.0000
  Zn  Zn11      1.0  0.56868  0.20510  0.79491  1.0000
  Zn  Zn12      1.0  0.81868  0.45510  0.04491  1.0000
  Zn  Zn13      1.0  0.06860  0.58129  0.41870  1.0000
  Zn  Zn14      1.0  0.31860  0.83129  0.66870  1.0000
  Zn  Zn15      1.0  0.56860  0.08129  0.91870  1.0000
  Zn  Zn16      1.0  0.81860  0.33129  0.16870  1.0000
  O   O1        1.0  0.13426  0.64319  0.35681  1.0000
  O   O2        1.0  0.38426  0.89319  0.60681  1.0000
  O   O3        1.0  0.63426  0.14319  0.85681  1.0000
  O   O4        1.0  0.88426  0.39319  0.10681  1.0000
  O   O5        1.0  0.30975  0.68867  0.40232  1.0000
  O   O6        1.0  0.55975  0.93867  0.65232  1.0000
  O   O7        1.0  0.80975  0.18867  0.90232  1.0000
  O   O8        1.0  0.05975  0.43867  0.15232  1.0000
  O   O9        1.0  0.18243  0.59769  0.19127  1.0000
  O   O10       1.0  0.43243  0.84769  0.44127  1.0000
  O   O11       1.0  0.68243  0.09769  0.69127  1.0000
  O   O12       1.0  0.93243  0.34769  0.94127  1.0000
  O   O13       1.0  0.08615  0.80873  0.31136  1.0000
  O   O14       1.0  0.33615  0.05873  0.56136  1.0000
  O   O15       1.0  0.58615  0.30873  0.81136  1.0000
  O   O16       1.0  0.83615  0.55873  0.06136  1.0000
  O   O17       1.0  0.30969  0.59769  0.31134  1.0000
  O   O18       1.0  0.55969  0.84769  0.56134  1.0000
  O   O19       1.0  0.80969  0.09769  0.81134  1.0000
  O   O20       1.0  0.05969  0.34769  0.06134  1.0000
  O   O21       1.0  0.18258  0.80873  0.40233  1.0000
  O   O22       1.0  0.43258  0.05873  0.65233  1.0000
  O   O23       1.0  0.68258  0.30873  0.90233  1.0000
  O   O24       1.0  0.93258  0.55873  0.15233  1.0000
  O   O25       1.0  0.08607  0.68866  0.19128  1.0000
  O   O26       1.0  0.33607  0.93866  0.44128  1.0000
  O   O27       1.0  0.58607  0.18866  0.69128  1.0000
  O   O28       1.0  0.83607  0.43866  0.94128  1.0000
  O   O29       1.0  0.95882  0.68868  0.31132  1.0000
  O   O30       1.0  0.20882  0.93868  0.56132  1.0000
  O   O31       1.0  0.45882  0.18868  0.81132  1.0000
  O   O32       1.0  0.70882  0.43868  0.06132  1.0000
  O   O33       1.0  0.08602  0.59773  0.52234  1.0000
  O   O34       1.0  0.33602  0.84773  0.77234  1.0000
  O   O35       1.0  0.58602  0.09773  0.02234  1.0000
  O   O36       1.0  0.83602  0.34773  0.27234  1.0000
  O   O37       1.0  0.95876  0.59772  0.40227  1.0000
  O   O38       1.0  0.20876  0.84772  0.65227  1.0000
  O   O39       1.0  0.45876  0.09772  0.90227  1.0000
  O   O40       1.0  0.70876  0.34772  0.15227  1.0000
  O   O41       1.0  0.18250  0.68869  0.52237  1.0000
  O   O42       1.0  0.43250  0.93869  0.77237  1.0000
  O   O43       1.0  0.68250  0.18869  0.02237  1.0000
  O   O44       1.0  0.93250  0.43869  0.27237  1.0000
  O   O45       1.0  0.18236  0.47764  0.31130  1.0000
  O   O46       1.0  0.43236  0.72764  0.56130  1.0000
  O   O47       1.0  0.68236  0.97764  0.81130  1.0000
  O   O48       1.0  0.93236  0.22764  0.06130  1.0000
  O   O49       1.0  0.08594  0.47766  0.40226  1.0000
  O   O50       1.0  0.33594  0.72766  0.65226  1.0000
  O   O51       1.0  0.58594  0.97766  0.90226  1.0000
  O   O52       1.0  0.83594  0.22766  0.15226  1.0000
  C   C1        1.0  0.93031  0.64320  0.35679  1.0000
  C   C2        1.0  0.18031  0.89320  0.60679  1.0000
  C   C3        1.0  0.43031  0.14320  0.85679  1.0000
  C   C4        1.0  0.68031  0.39320  0.10679  1.0000
  C   C5        1.0  0.84306  0.64319  0.35680  1.0000
  C   C6        1.0  0.09306  0.89319  0.60680  1.0000
  C   C7        1.0  0.34306  0.14319  0.85680  1.0000
  C   C8        1.0  0.59306  0.39319  0.10680  1.0000
  C   C9        1.0  0.80206  0.59576  0.40408  1.0000
  C   C10       1.0  0.05206  0.84576  0.65408  1.0000
  C   C11       1.0  0.30206  0.09576  0.90408  1.0000
  C   C12       1.0  0.55206  0.34576  0.15408  1.0000
  C   C13       1.0  0.72008  0.59576  0.40409  1.0000
  C   C14       1.0  0.97008  0.84576  0.65409  1.0000
  C   C15       1.0  0.22008  0.09576  0.90409  1.0000
  C   C16       1.0  0.47008  0.34576  0.15409  1.0000
  C   C17       1.0  0.67910  0.64319  0.35682  1.0000
  C   C18       1.0  0.92910  0.89319  0.60682  1.0000
  C   C19       1.0  0.17910  0.14319  0.85682  1.0000
  C   C20       1.0  0.42910  0.39319  0.10682  1.0000
  C   C21       1.0  0.72010  0.69062  0.30954  1.0000
  C   C22       1.0  0.97010  0.94062  0.55954  1.0000
  C   C23       1.0  0.22010  0.19062  0.80954  1.0000
  C   C24       1.0  0.47010  0.44062  0.05954  1.0000
  C   C25       1.0  0.80208  0.69063  0.30953  1.0000
  C   C26       1.0  0.05208  0.94063  0.55953  1.0000
  C   C27       1.0  0.30208  0.19063  0.80953  1.0000
  C   C28       1.0  0.55208  0.44063  0.05953  1.0000
  C   C29       1.0  0.54924  0.69061  0.30956  1.0000
  C   C30       1.0  0.79924  0.94061  0.55956  1.0000
  C   C31       1.0  0.04923  0.19061  0.80956  1.0000
  C   C32       1.0  0.29923  0.44061  0.05956  1.0000
  C   C33       1.0  0.46725  0.69060  0.30956  1.0000
  C   C34       1.0  0.71725  0.94060  0.55956  1.0000
  C   C35       1.0  0.96725  0.19060  0.80956  1.0000
  C   C36       1.0  0.21725  0.44060  0.05956  1.0000
  C   C37       1.0  0.46723  0.59574  0.40412  1.0000
  C   C38       1.0  0.71723  0.84574  0.65412  1.0000
  C   C39       1.0  0.96723  0.09574  0.90412  1.0000
  C   C40       1.0  0.21723  0.34574  0.15412  1.0000
  C   C41       1.0  0.54921  0.59574  0.40411  1.0000
  C   C42       1.0  0.79921  0.84574  0.65411  1.0000
  C   C43       1.0  0.04921  0.09574  0.90411  1.0000
  C   C44       1.0  0.29921  0.34574  0.15411  1.0000
  C   C45       1.0  0.59021  0.64318  0.35683  1.0000
  C   C46       1.0  0.84021  0.89318  0.60683  1.0000
  C   C47       1.0  0.09021  0.14318  0.85683  1.0000
  C   C48       1.0  0.34021  0.39318  0.10683  1.0000
  C   C49       1.0  0.13415  0.45078  0.35679  1.0000
  C   C50       1.0  0.38415  0.70078  0.60679  1.0000
  C   C51       1.0  0.63415  0.95078  0.85679  1.0000
  C   C52       1.0  0.88415  0.20078  0.10679  1.0000
  C   C53       1.0  0.13418  0.36847  0.35681  1.0000
  C   C54       1.0  0.38418  0.61847  0.60681  1.0000
  C   C55       1.0  0.63418  0.86847  0.85681  1.0000
  C   C56       1.0  0.88418  0.11847  0.10681  1.0000
  C   C57       1.0  0.13435  0.06937  0.35685  1.0000
  C   C58       1.0  0.38435  0.31937  0.60685  1.0000
  C   C59       1.0  0.63435  0.56937  0.85685  1.0000
  C   C60       1.0  0.88435  0.81937  0.10685  1.0000
  C   C61       1.0  0.07383  0.10068  0.41422  1.0000
  C   C62       1.0  0.32383  0.35068  0.66422  1.0000
  C   C63       1.0  0.57383  0.60068  0.91422  1.0000
  C   C64       1.0  0.82383  0.85068  0.16422  1.0000
  C   C65       1.0  0.07354  0.18630  0.41404  1.0000
  C   C66       1.0  0.32354  0.43630  0.66404  1.0000
  C   C67       1.0  0.57354  0.68630  0.91404  1.0000
  C   C68       1.0  0.82354  0.93630  0.16404  1.0000
  C   C69       1.0  0.13427  0.21776  0.35683  1.0000
  C   C70       1.0  0.38427  0.46776  0.60683  1.0000
  C   C71       1.0  0.63427  0.71776  0.85683  1.0000
  C   C72       1.0  0.88427  0.96776  0.10683  1.0000
  C   C73       1.0  0.11189  0.18662  0.27878  1.0000
  C   C74       1.0  0.36189  0.43662  0.52878  1.0000
  C   C75       1.0  0.61189  0.68662  0.77878  1.0000
  C   C76       1.0  0.86189  0.93662  0.02878  1.0000
  C   C77       1.0  0.11150  0.10098  0.27912  1.0000
  C   C78       1.0  0.36150  0.35098  0.52912  1.0000
  C   C79       1.0  0.61150  0.60098  0.77912  1.0000
  C   C80       1.0  0.86150  0.85098  0.02912  1.0000
  C   C81       1.0  0.21739  0.10103  0.37684  1.0000
  C   C82       1.0  0.46739  0.35103  0.62684  1.0000
  C   C83       1.0  0.71739  0.60103  0.87684  1.0000
  C   C84       1.0  0.96739  0.85103  0.12684  1.0000
  C   C85       1.0  0.21690  0.18668  0.37855  1.0000
  C   C86       1.0  0.46690  0.43668  0.62855  1.0000
  C   C87       1.0  0.71690  0.68668  0.87855  1.0000
  C   C88       1.0  0.96690  0.93668  0.12855  1.0000
  C   C89       1.0  0.13422  0.30162  0.35681  1.0000
  C   C90       1.0  0.38422  0.55162  0.60681  1.0000
  C   C91       1.0  0.63422  0.80162  0.85681  1.0000
  C   C92       1.0  0.88422  0.05162  0.10681  1.0000
  C   C93       1.0  0.13440  0.98552  0.35686  1.0000
  C   C94       1.0  0.38440  0.23552  0.60686  1.0000
  C   C95       1.0  0.63440  0.48552  0.85686  1.0000
  C   C96       1.0  0.88440  0.73552  0.10686  1.0000
  C   C97       1.0  0.33900  0.64318  0.35684  1.0000
  C   C98       1.0  0.58900  0.89318  0.60684  1.0000
  C   C99       1.0  0.83900  0.14318  0.85684  1.0000
  C   C100      1.0  0.08900  0.39318  0.10684  1.0000
  C   C101      1.0  0.42625  0.64317  0.35684  1.0000
  C   C102      1.0  0.67625  0.89317  0.60684  1.0000
  C   C103      1.0  0.92625  0.14317  0.85684  1.0000
  C   C104      1.0  0.17625  0.39317  0.10684  1.0000
  C   C105      1.0  0.13426  0.64321  0.54998  1.0000
  C   C106      1.0  0.38426  0.89321  0.79998  1.0000
  C   C107      1.0  0.63426  0.14321  0.04998  1.0000
  C   C108      1.0  0.88426  0.39321  0.29998  1.0000
  C   C109      1.0  0.13427  0.64322  0.63229  1.0000
  C   C110      1.0  0.38426  0.89322  0.88229  1.0000
  C   C111      1.0  0.63427  0.14322  0.13229  1.0000
  C   C112      1.0  0.88426  0.39322  0.38229  1.0000
  C   C113      1.0  0.13438  0.83635  0.35685  1.0000
  C   C114      1.0  0.38438  0.08635  0.60685  1.0000
  C   C115      1.0  0.63438  0.33635  0.85685  1.0000
  C   C116      1.0  0.88438  0.58635  0.10685  1.0000
  C   C117      1.0  0.13444  0.91867  0.35687  1.0000
  C   C118      1.0  0.38444  0.16867  0.60687  1.0000
  C   C119      1.0  0.63444  0.41867  0.85687  1.0000
  C   C120      1.0  0.88444  0.66867  0.10687  1.0000
  C   C121      1.0  0.13427  0.64321  0.78300  1.0000
  C   C122      1.0  0.38427  0.89321  0.03300  1.0000
  C   C123      1.0  0.63427  0.14320  0.28300  1.0000
  C   C124      1.0  0.88427  0.39321  0.53300  1.0000
  C   C125      1.0  0.19496  0.70043  0.81437  1.0000
  C   C126      1.0  0.44496  0.95043  0.06437  1.0000
  C   C127      1.0  0.69496  0.20043  0.31437  1.0000
  C   C128      1.0  0.94496  0.45043  0.56437  1.0000
  C   C129      1.0  0.19520  0.70026  0.89999  1.0000
  C   C130      1.0  0.44520  0.95025  0.14999  1.0000
  C   C131      1.0  0.69520  0.20025  0.39999  1.0000
  C   C132      1.0  0.94520  0.45026  0.64999  1.0000
  C   C133      1.0  0.13427  0.64319  0.93138  1.0000
  C   C134      1.0  0.38427  0.89319  0.18138  1.0000
  C   C135      1.0  0.63427  0.14319  0.43138  1.0000
  C   C136      1.0  0.88427  0.39319  0.68138  1.0000
  C   C137      1.0  0.15640  0.56509  0.90027  1.0000
  C   C138      1.0  0.40640  0.81509  0.15027  1.0000
  C   C139      1.0  0.65640  0.06509  0.40027  1.0000
  C   C140      1.0  0.90640  0.31509  0.65027  1.0000
  C   C141      1.0  0.15684  0.56543  0.81463  1.0000
  C   C142      1.0  0.40684  0.81543  0.06463  1.0000
  C   C143      1.0  0.65684  0.06543  0.31463  1.0000
  C   C144      1.0  0.90684  0.31543  0.56463  1.0000
  C   C145      1.0  0.05128  0.66340  0.81456  1.0000
  C   C146      1.0  0.30128  0.91340  0.06455  1.0000
  C   C147      1.0  0.55128  0.16340  0.31455  1.0000
  C   C148      1.0  0.80128  0.41340  0.56455  1.0000
  C   C149      1.0  0.05173  0.66511  0.90021  1.0000
  C   C150      1.0  0.30173  0.91511  0.15021  1.0000
  C   C151      1.0  0.55173  0.16511  0.40021  1.0000
  C   C152      1.0  0.80173  0.41511  0.65021  1.0000
  C   C153      1.0  0.13427  0.64318  0.01524  1.0000
  C   C154      1.0  0.38427  0.89318  0.26524  1.0000
  C   C155      1.0  0.63427  0.14318  0.51524  1.0000
  C   C156      1.0  0.88427  0.39318  0.76524  1.0000
  C   C157      1.0  0.13427  0.64321  0.69914  1.0000
  C   C158      1.0  0.38427  0.89321  0.94914  1.0000
  C   C159      1.0  0.63427  0.14321  0.19914  1.0000
  C   C160      1.0  0.88427  0.39321  0.44914  1.0000
  C   C161      1.0  0.13425  0.64316  0.16440  1.0000
  C   C162      1.0  0.38425  0.89316  0.41440  1.0000
  C   C163      1.0  0.63425  0.14316  0.66440  1.0000
  C   C164      1.0  0.88425  0.39316  0.91440  1.0000
  C   C165      1.0  0.13427  0.64318  0.08209  1.0000
  C   C166      1.0  0.38427  0.89318  0.33209  1.0000
  C   C167      1.0  0.63427  0.14318  0.58209  1.0000
  C   C168      1.0  0.88427  0.39318  0.83209  1.0000
  H   H1        1.0  0.08754  0.20735  0.47191  1.0000
  H   H2        1.0  0.33754  0.45735  0.72191  1.0000
  H   H3        1.0  0.58754  0.70735  0.97191  1.0000
  H   H4        1.0  0.83754  0.95735  0.22191  1.0000
  Cl  Cl1       1.0  0.09153  0.49733  0.78258  1.0000
  Cl  Cl2       1.0  0.34153  0.74733  0.03258  1.0000
  Cl  Cl3       1.0  0.59153  0.99733  0.28258  1.0000
  Cl  Cl4       1.0  0.84153  0.24733  0.53258  1.0000
  H   H5        1.0  0.18131  0.75852  0.79380  1.0000
  H   H6        1.0  0.43131  0.00852  0.04380  1.0000
  H   H7        1.0  0.68131  0.25852  0.29380  1.0000
  H   H8        1.0  0.93131  0.50852  0.54380  1.0000
  H   H9        1.0  0.25669  0.68687  0.92048  1.0000
  H   H10       1.0  0.50669  0.93687  0.17048  1.0000
  H   H11       1.0  0.75669  0.18687  0.42048  1.0000
  H   H12       1.0  0.00669  0.43687  0.67048  1.0000
  H   H13       1.0  0.00411  0.62649  0.92157  1.0000
  H   H14       1.0  0.25411  0.87649  0.17157  1.0000
  H   H15       1.0  0.50411  0.12649  0.42157  1.0000
  H   H16       1.0  0.75411  0.37649  0.67157  1.0000
  Cl  Cl5       1.0  0.09024  0.49745  0.93166  1.0000
  Cl  Cl6       1.0  0.34024  0.74745  0.18166  1.0000
  Cl  Cl7       1.0  0.59024  0.99745  0.43166  1.0000
  Cl  Cl8       1.0  0.84024  0.24745  0.68166  1.0000
  Cl  Cl9       1.0  0.41573  0.75022  0.25013  1.0000
  Cl  Cl10      1.0  0.66573  0.00022  0.50013  1.0000
  Cl  Cl11      1.0  0.91573  0.25022  0.75013  1.0000
  Cl  Cl12      1.0  0.16573  0.50022  0.00013  1.0000
  H   H17       1.0  0.26437  0.20810  0.33981  1.0000
  H   H18       1.0  0.51437  0.45810  0.58981  1.0000
  H   H19       1.0  0.76437  0.70810  0.83981  1.0000
  H   H20       1.0  0.01437  0.95810  0.08981  1.0000
  Cl  Cl13      1.0  0.66859  0.75025  0.25011  1.0000
  Cl  Cl14      1.0  0.91859  0.00025  0.50011  1.0000
  Cl  Cl15      1.0  0.16859  0.25025  0.75011  1.0000
  Cl  Cl16      1.0  0.41859  0.50025  0.00012  1.0000
  H   H21       1.0  0.21637  0.54770  0.92175  1.0000
  H   H22       1.0  0.46637  0.79770  0.17175  1.0000
  H   H23       1.0  0.71637  0.04770  0.42175  1.0000
  H   H24       1.0  0.96637  0.29770  0.67175  1.0000
  H   H25       1.0  0.23378  0.20703  0.43599  1.0000
  H   H26       1.0  0.48378  0.45703  0.68599  1.0000
  H   H27       1.0  0.73377  0.70703  0.93599  1.0000
  H   H28       1.0  0.98378  0.95703  0.18599  1.0000
  H   H29       1.0  0.21749  0.54835  0.79466  1.0000
  H   H30       1.0  0.46749  0.79835  0.04466  1.0000
  H   H31       1.0  0.71749  0.04835  0.29466  1.0000
  H   H32       1.0  0.96749  0.29835  0.54466  1.0000
  H   H33       1.0  0.03503  0.72259  0.92054  1.0000
  H   H34       1.0  0.28503  0.97259  0.17054  1.0000
  H   H35       1.0  0.53503  0.22259  0.42054  1.0000
  H   H36       1.0  0.78503  0.47259  0.67054  1.0000
  H   H37       1.0  0.25611  0.68721  0.79286  1.0000
  H   H38       1.0  0.50611  0.93721  0.04286  1.0000
  H   H39       1.0  0.75611  0.18721  0.29286  1.0000
  H   H40       1.0  0.00611  0.43721  0.54286  1.0000
  H   H41       1.0  0.18138  0.75816  0.92102  1.0000
  H   H42       1.0  0.43138  0.00816  0.17102  1.0000
  H   H43       1.0  0.68137  0.25816  0.42102  1.0000
  H   H44       1.0  0.93137  0.50816  0.67102  1.0000
  H   H45       1.0  0.83547  0.72926  0.27104  1.0000
  H   H46       1.0  0.08546  0.97926  0.52104  1.0000
  H   H47       1.0  0.33546  0.22926  0.77104  1.0000
  H   H48       1.0  0.58546  0.47926  0.02103  1.0000
  Cl  Cl17      1.0  0.97938  0.06734  0.39404  1.0000
  Cl  Cl18      1.0  0.22938  0.31734  0.64404  1.0000
  Cl  Cl19      1.0  0.47938  0.56734  0.89404  1.0000
  Cl  Cl20      1.0  0.72938  0.81734  0.14404  1.0000
  Cl  Cl21      1.0  0.02008  0.74984  0.78123  1.0000
  Cl  Cl22      1.0  0.27008  0.99984  0.03123  1.0000
  Cl  Cl23      1.0  0.52008  0.24984  0.28123  1.0000
  Cl  Cl24      1.0  0.77008  0.49984  0.53123  1.0000
  H   H49       1.0  0.26248  0.08079  0.33506  1.0000
  H   H50       1.0  0.51248  0.33079  0.58506  1.0000
  H   H51       1.0  0.76248  0.58079  0.83506  1.0000
  H   H52       1.0  0.01248  0.83079  0.08506  1.0000
  H   H53       1.0  0.01199  0.20672  0.40079  1.0000
  H   H54       1.0  0.26199  0.45672  0.65079  1.0000
  H   H55       1.0  0.51199  0.70672  0.90079  1.0000
  H   H56       1.0  0.76199  0.95672  0.15079  1.0000
  H   H57       1.0  0.00606  0.62172  0.79426  1.0000
  H   H58       1.0  0.25606  0.87172  0.04426  1.0000
  H   H59       1.0  0.50606  0.12172  0.29426  1.0000
  H   H60       1.0  0.75606  0.37172  0.54426  1.0000
  Cl  Cl25      1.0  0.09522  0.06894  0.50386  1.0000
  Cl  Cl26      1.0  0.34522  0.31894  0.75386  1.0000
  Cl  Cl27      1.0  0.59522  0.56894  0.00386  1.0000
  Cl  Cl28      1.0  0.84522  0.81894  0.25386  1.0000
  H   H61       1.0  0.23779  0.07947  0.43278  1.0000
  H   H62       1.0  0.48779  0.32947  0.68278  1.0000
  H   H63       1.0  0.73779  0.57947  0.93278  1.0000
  H   H64       1.0  0.98779  0.82947  0.18278  1.0000
  Cl  Cl29      1.0  0.60078  0.75024  0.25011  1.0000
  Cl  Cl30      1.0  0.85078  0.00024  0.50011  1.0000
  Cl  Cl31      1.0  0.10078  0.25024  0.75011  1.0000
  Cl  Cl32      1.0  0.35078  0.50024  0.00011  1.0000
  H   H65       1.0  0.05080  0.08093  0.26219  1.0000
  H   H66       1.0  0.30080  0.33093  0.51219  1.0000
  H   H67       1.0  0.55080  0.58093  0.76219  1.0000
  H   H68       1.0  0.80080  0.83093  0.01219  1.0000
  H   H69       1.0  0.15367  0.08027  0.23492  1.0000
  H   H70       1.0  0.40367  0.33027  0.48492  1.0000
  H   H71       1.0  0.65367  0.58027  0.73492  1.0000
  H   H72       1.0  0.90367  0.83027  0.98492  1.0000
  H   H73       1.0  0.83542  0.55714  0.44258  1.0000
  H   H74       1.0  0.08542  0.80714  0.69258  1.0000
  H   H75       1.0  0.33542  0.05714  0.94258  1.0000
  H   H76       1.0  0.58542  0.30714  0.19257  1.0000
  H   H77       1.0  0.68670  0.55713  0.44259  1.0000
  H   H78       1.0  0.93670  0.80713  0.69259  1.0000
  H   H79       1.0  0.18670  0.05713  0.94259  1.0000
  H   H80       1.0  0.43670  0.30713  0.19259  1.0000
  H   H81       1.0  0.15458  0.20700  0.23487  1.0000
  H   H82       1.0  0.40458  0.45700  0.48487  1.0000
  H   H83       1.0  0.65458  0.70700  0.73487  1.0000
  H   H84       1.0  0.90458  0.95700  0.98487  1.0000
  Cl  Cl33      1.0  0.41569  0.53611  0.46357  1.0000
  Cl  Cl34      1.0  0.66569  0.78611  0.71357  1.0000
  Cl  Cl35      1.0  0.91569  0.03611  0.96357  1.0000
  Cl  Cl36      1.0  0.16569  0.28611  0.21357  1.0000
  Cl  Cl37      1.0  0.01916  0.21963  0.25216  1.0000
  Cl  Cl38      1.0  0.26916  0.46963  0.50216  1.0000
  Cl  Cl39      1.0  0.51916  0.71963  0.75216  1.0000
  Cl  Cl40      1.0  0.76916  0.96963  0.00216  1.0000
  H   H85       1.0  0.58257  0.55712  0.44260  1.0000
  H   H86       1.0  0.83257  0.80712  0.69260  1.0000
  H   H87       1.0  0.08257  0.05712  0.94260  1.0000
  H   H88       1.0  0.33257  0.30712  0.19260  1.0000
