data_image0
_chemical_formula_structural       ZrO12Zr5O20C46H2N2H5N2HN2H4N2H2N2HN2H2N2HN2H2
_chemical_formula_sum              "Zr6 O32 C46 H20 N16"
_cell_length_a       15.6985
_cell_length_b       12.9705
_cell_length_c       12.9705
_cell_angle_alpha    59.9996
_cell_angle_beta     89.9999
_cell_angle_gamma    60.0008

_space_group_name_H-M_alt    "P 1"
_space_group_IT_number       1

loop_
  _space_group_symop_operation_xyz
  'x, y, z'

loop_
  _atom_site_type_symbol
  _atom_site_label
  _atom_site_symmetry_multiplicity
  _atom_site_fract_x
  _atom_site_fract_y
  _atom_site_fract_z
  _atom_site_occupancy
  Zr  Zr1       1.0  0.82061  0.12855  0.86468  1.0000
  O   O1        1.0  0.68459  0.34363  0.70006  1.0000
  O   O2        1.0  0.86231  0.91346  0.91515  1.0000
  O   O3        1.0  0.86230  0.12855  0.70005  1.0000
  O   O4        1.0  0.68460  0.12854  0.08482  1.0000
  O   O5        1.0  0.00249  0.12855  0.70005  1.0000
  O   O6        1.0  0.68460  0.12854  0.91515  1.0000
  O   O7        1.0  0.00249  0.74379  0.08481  1.0000
  O   O8        1.0  0.68459  0.51330  0.70005  1.0000
  O   O9        1.0  0.98470  0.00193  0.93667  1.0000
  O   O10       1.0  0.88009  0.00192  0.06329  1.0000
  O   O11       1.0  0.88009  0.25517  0.81005  1.0000
  O   O12       1.0  0.77547  0.25517  0.93667  1.0000
  Zr  Zr2       1.0  0.04418  0.12855  0.13528  1.0000
  Zr  Zr3       1.0  0.04418  0.12855  0.86467  1.0000
  Zr  Zr4       1.0  0.82061  0.12854  0.13528  1.0000
  Zr  Zr5       1.0  0.82061  0.39915  0.86468  1.0000
  Zr  Zr6       1.0  0.04418  0.85795  0.13528  1.0000
  O   O13       1.0  0.00249  0.34364  0.08481  1.0000
  O   O14       1.0  0.00249  0.34364  0.70005  1.0000
  O   O15       1.0  0.68460  0.34363  0.08481  1.0000
  O   O16       1.0  0.18020  0.91346  0.29990  1.0000
  O   O17       1.0  0.18020  0.91347  0.91514  1.0000
  O   O18       1.0  0.86231  0.91345  0.29990  1.0000
  O   O19       1.0  0.18020  0.12856  0.91514  1.0000
  O   O20       1.0  0.00249  0.12855  0.29990  1.0000
  O   O21       1.0  0.86231  0.12854  0.29990  1.0000
  O   O22       1.0  0.18020  0.12856  0.08481  1.0000
  O   O23       1.0  0.86231  0.51331  0.70005  1.0000
  O   O24       1.0  0.00249  0.74379  0.29990  1.0000
  O   O25       1.0  0.18020  0.74380  0.29990  1.0000
  O   O26       1.0  0.18020  0.74380  0.08481  1.0000
  O   O27       1.0  0.68460  0.51330  0.91515  1.0000
  O   O28       1.0  0.86231  0.51331  0.91514  1.0000
  O   O29       1.0  0.98470  0.00193  0.18991  1.0000
  O   O30       1.0  0.08932  0.00193  0.06328  1.0000
  O   O31       1.0  0.98470  0.25517  0.93666  1.0000
  O   O32       1.0  0.88009  0.25517  0.06329  1.0000
  C   C1        1.0  0.93240  0.79007  0.99998  1.0000
  C   C2        1.0  0.93240  0.67519  0.99998  1.0000
  C   C3        1.0  0.65274  0.12854  0.99998  1.0000
  C   C4        1.0  0.55783  0.12854  0.99998  1.0000
  C   C5        1.0  0.38404  0.12856  0.99997  1.0000
  C   C6        1.0  0.48075  0.12855  0.99998  1.0000
  C   C7        1.0  0.21205  0.12856  0.99997  1.0000
  C   C8        1.0  0.30696  0.12856  0.99997  1.0000
  C   C9        1.0  0.93240  0.12855  0.66150  1.0000
  C   C10       1.0  0.93239  0.12855  0.54662  1.0000
  C   C11       1.0  0.93240  0.46703  0.99997  1.0000
  C   C12       1.0  0.93240  0.58190  0.99997  1.0000
  C   C13       1.0  0.93240  0.12855  0.33846  1.0000
  C   C14       1.0  0.93240  0.12855  0.45333  1.0000
  C   C15       1.0  0.21205  0.79008  0.99997  1.0000
  C   C16       1.0  0.30696  0.67520  0.99997  1.0000
  C   C17       1.0  0.93240  0.79007  0.33846  1.0000
  C   C18       1.0  0.93240  0.67519  0.45334  1.0000
  C   C19       1.0  0.21205  0.79007  0.33845  1.0000
  C   C20       1.0  0.30697  0.67520  0.45333  1.0000
  C   C21       1.0  0.65274  0.46702  0.66150  1.0000
  C   C22       1.0  0.55783  0.58190  0.54663  1.0000
  C   C23       1.0  0.65274  0.46702  0.99998  1.0000
  C   C24       1.0  0.55783  0.58189  0.99998  1.0000
  C   C25       1.0  0.93240  0.46703  0.66150  1.0000
  C   C26       1.0  0.93239  0.58191  0.54662  1.0000
  C   C27       1.0  0.29693  0.62126  0.93387  1.0000
  C   C28       1.0  0.38610  0.51333  0.93384  1.0000
  C   C29       1.0  0.48531  0.45936  0.99993  1.0000
  C   C30       1.0  0.49534  0.51331  0.06603  1.0000
  C   C31       1.0  0.40617  0.62124  0.06605  1.0000
  C   C32       1.0  0.40616  0.62126  0.44118  1.0000
  C   C33       1.0  0.49534  0.51334  0.54911  1.0000
  C   C34       1.0  0.48534  0.45935  0.66918  1.0000
  C   C35       1.0  0.38614  0.51331  0.68133  1.0000
  C   C36       1.0  0.29696  0.62123  0.57340  1.0000
  C   C37       1.0  0.45864  0.63585  0.55878  1.0000
  C   C38       1.0  0.36945  0.74381  0.45085  1.0000
  C   C39       1.0  0.37945  0.79780  0.33077  1.0000
  C   C40       1.0  0.47865  0.74384  0.31863  1.0000
  C   C41       1.0  0.56784  0.63589  0.42655  1.0000
  C   C42       1.0  0.56787  0.63585  0.06608  1.0000
  C   C43       1.0  0.47869  0.74380  0.06607  1.0000
  C   C44       1.0  0.37949  0.79779  0.99998  1.0000
  C   C45       1.0  0.36945  0.74382  0.93388  1.0000
  C   C46       1.0  0.45862  0.63588  0.93388  1.0000
  H   H1        1.0  0.37791  0.46941  0.88001  1.0000
  H   H2        1.0  0.57613  0.46935  0.11984  1.0000
  N   N1        1.0  0.48894  0.79893  0.13359  1.0000
  N   N2        1.0  0.45138  0.93143  0.07607  1.0000
  H   H3        1.0  0.45862  0.97036  0.12375  1.0000
  H   H4        1.0  0.28866  0.78779  0.88007  1.0000
  H   H5        1.0  0.55791  0.37147  0.99990  1.0000
  H   H6        1.0  0.30689  0.88568  0.99999  1.0000
  H   H7        1.0  0.55797  0.37147  0.75705  1.0000
  N   N3        1.0  0.19560  0.67635  0.86636  1.0000
  N   N4        1.0  0.18668  0.62816  0.80735  1.0000
  H   H8        1.0  0.11512  0.66706  0.75966  1.0000
  N   N5        1.0  0.44834  0.58078  0.86635  1.0000
  N   N6        1.0  0.35975  0.62900  0.80736  1.0000
  H   H9        1.0  0.35249  0.59010  0.75966  1.0000
  H   H10       1.0  0.41436  0.66515  0.11989  1.0000
  H   H11       1.0  0.21619  0.66514  0.58331  1.0000
  H   H12       1.0  0.57611  0.46942  0.53919  1.0000
  N   N7        1.0  0.41641  0.67636  0.31854  1.0000
  N   N8        1.0  0.50499  0.62817  0.30774  1.0000
  H   H13       1.0  0.51224  0.66708  0.22113  1.0000
  H   H14       1.0  0.37801  0.46934  0.77911  1.0000
  N   N9        1.0  0.28833  0.90804  0.22055  1.0000
  N   N10       1.0  0.22415  0.88392  0.20191  1.0000
  H   H15       1.0  0.15979  0.96178  0.12407  1.0000
  N   N11       1.0  0.44842  0.58072  0.68143  1.0000
  N   N12       1.0  0.52805  0.48435  0.77780  1.0000
  H   H16       1.0  0.52083  0.44542  0.86442  1.0000
  H   H17       1.0  0.28868  0.78773  0.46076  1.0000
  N   N13       1.0  0.66915  0.58079  0.41411  1.0000
  N   N14       1.0  0.67805  0.62902  0.30689  1.0000
  H   H18       1.0  0.74960  0.59011  0.29809  1.0000
  N   N15       1.0  0.66919  0.58076  0.13358  1.0000
  N   N16       1.0  0.69578  0.66511  0.10554  1.0000
  H   H19       1.0  0.76734  0.62621  0.15321  1.0000
  H   H20       1.0  0.48678  0.78781  0.22085  1.0000
