data_image0
_chemical_formula_structural       Zn8O26C80H2Cl4H12Cl4H6Cl4
_chemical_formula_sum              "Zn8 O26 C80 H20 Cl12"
_cell_length_a       12.7594
_cell_length_b       16.6255
_cell_length_c       12.7594
_cell_angle_alpha    89.9644
_cell_angle_beta     89.9795
_cell_angle_gamma    90.024

_space_group_name_H-M_alt    "P 1"
_space_group_IT_number       1

loop_
  _space_group_symop_operation_xyz
  'x, y, z'

loop_
  _atom_site_type_symbol
  _atom_site_label
  _atom_site_symmetry_multiplicity
  _atom_site_fract_x
  _atom_site_fract_y
  _atom_site_fract_z
  _atom_site_occupancy
  Zn  Zn1       1.0  0.60621  0.67907  0.40603  1.0000
  Zn  Zn2       1.0  0.10621  0.17907  0.90603  1.0000
  Zn  Zn3       1.0  0.60608  0.54422  0.58172  1.0000
  Zn  Zn4       1.0  0.10608  0.04422  0.08172  1.0000
  Zn  Zn5       1.0  0.43051  0.67903  0.58169  1.0000
  Zn  Zn6       1.0  0.93051  0.17903  0.08169  1.0000
  Zn  Zn7       1.0  0.43048  0.54428  0.40609  1.0000
  Zn  Zn8       1.0  0.93048  0.04428  0.90609  1.0000
  O   O1        1.0  0.51832  0.61165  0.49388  1.0000
  O   O2        1.0  0.01832  0.11165  0.99388  1.0000
  O   O3        1.0  0.75321  0.66118  0.42933  1.0000
  O   O4        1.0  0.25321  0.16118  0.92933  1.0000
  O   O5        1.0  0.58275  0.56206  0.72874  1.0000
  O   O6        1.0  0.08275  0.06206  0.22874  1.0000
  O   O7        1.0  0.45389  0.79187  0.55835  1.0000
  O   O8        1.0  0.95389  0.29187  0.05835  1.0000
  O   O9        1.0  0.75312  0.56210  0.55841  1.0000
  O   O10       1.0  0.25312  0.06210  0.05841  1.0000
  O   O11       1.0  0.58297  0.79190  0.42930  1.0000
  O   O12       1.0  0.08297  0.29190  0.92930  1.0000
  O   O13       1.0  0.45376  0.66111  0.72872  1.0000
  O   O14       1.0  0.95376  0.16110  0.22872  1.0000
  O   O15       1.0  0.28348  0.66116  0.55841  1.0000
  O   O16       1.0  0.78348  0.16116  0.05841  1.0000
  O   O17       1.0  0.45383  0.56220  0.25906  1.0000
  O   O18       1.0  0.95383  0.06220  0.75906  1.0000
  O   O19       1.0  0.28346  0.56216  0.42939  1.0000
  O   O20       1.0  0.78346  0.06216  0.92939  1.0000
  O   O21       1.0  0.58294  0.66123  0.25902  1.0000
  O   O22       1.0  0.08294  0.16123  0.75902  1.0000
  O   O23       1.0  0.58272  0.43139  0.55846  1.0000
  O   O24       1.0  0.08272  0.93139  0.05846  1.0000
  O   O25       1.0  0.45370  0.43144  0.42942  1.0000
  O   O26       1.0  0.95370  0.93144  0.92942  1.0000
  C   C1        1.0  0.24535  0.61166  0.49390  1.0000
  C   C2        1.0  0.74535  0.11166  0.99390  1.0000
  C   C3        1.0  0.12858  0.61164  0.49388  1.0000
  C   C4        1.0  0.62858  0.11164  0.99388  1.0000
  C   C5        1.0  0.12859  0.50838  0.35975  1.0000
  C   C6        1.0  0.62859  0.00838  0.85975  1.0000
  C   C7        1.0  0.07374  0.45675  0.29269  1.0000
  C   C8        1.0  0.57374  0.95675  0.79269  1.0000
  C   C9        1.0  0.96401  0.45674  0.29267  1.0000
  C   C10       1.0  0.46402  0.95674  0.79267  1.0000
  C   C11       1.0  0.90914  0.50837  0.35973  1.0000
  C   C12       1.0  0.40914  0.00837  0.85973  1.0000
  C   C13       1.0  0.96400  0.56001  0.42680  1.0000
  C   C14       1.0  0.46400  0.06001  0.92680  1.0000
  C   C15       1.0  0.07372  0.56001  0.42681  1.0000
  C   C16       1.0  0.57372  0.06001  0.92681  1.0000
  C   C17       1.0  0.96398  0.66327  0.56092  1.0000
  C   C18       1.0  0.46398  0.16327  0.06092  1.0000
  C   C19       1.0  0.07370  0.66328  0.56094  1.0000
  C   C20       1.0  0.57370  0.16328  0.06094  1.0000
  C   C21       1.0  0.90911  0.71490  0.62798  1.0000
  C   C22       1.0  0.40911  0.21490  0.12798  1.0000
  C   C23       1.0  0.96397  0.76654  0.69506  1.0000
  C   C24       1.0  0.46397  0.26654  0.19506  1.0000
  C   C25       1.0  0.07370  0.76654  0.69507  1.0000
  C   C26       1.0  0.57370  0.26654  0.19507  1.0000
  C   C27       1.0  0.12856  0.71491  0.62801  1.0000
  C   C28       1.0  0.62856  0.21491  0.12801  1.0000
  C   C29       1.0  0.51822  0.40216  0.49393  1.0000
  C   C30       1.0  0.01822  0.90216  0.99393  1.0000
  C   C31       1.0  0.51827  0.31254  0.49391  1.0000
  C   C32       1.0  0.01827  0.81254  0.99391  1.0000
  C   C33       1.0  0.51846  0.98436  0.49380  1.0000
  C   C34       1.0  0.01846  0.48436  0.99380  1.0000
  C   C35       1.0  0.51840  0.07567  0.49383  1.0000
  C   C36       1.0  0.01840  0.57567  0.99383  1.0000
  C   C37       1.0  0.51836  0.14845  0.49386  1.0000
  C   C38       1.0  0.01837  0.64845  0.99386  1.0000
  C   C39       1.0  0.51831  0.23976  0.49388  1.0000
  C   C40       1.0  0.01831  0.73976  0.99388  1.0000
  C   C41       1.0  0.79235  0.61164  0.49386  1.0000
  C   C42       1.0  0.29235  0.11164  0.99386  1.0000
  C   C43       1.0  0.90913  0.61163  0.49386  1.0000
  C   C44       1.0  0.40913  0.11163  0.99386  1.0000
  C   C45       1.0  0.51840  0.61173  0.21985  1.0000
  C   C46       1.0  0.01840  0.11173  0.71985  1.0000
  C   C47       1.0  0.51843  0.61176  0.10307  1.0000
  C   C48       1.0  0.01843  0.11176  0.60307  1.0000
  C   C49       1.0  0.51845  0.82196  0.49382  1.0000
  C   C50       1.0  0.01845  0.32196  0.99382  1.0000
  C   C51       1.0  0.51850  0.91158  0.49379  1.0000
  C   C52       1.0  0.01850  0.41158  0.99379  1.0000
  C   C53       1.0  0.65288  0.71488  0.10301  1.0000
  C   C54       1.0  0.15288  0.21488  0.60301  1.0000
  C   C55       1.0  0.72013  0.76645  0.04812  1.0000
  C   C56       1.0  0.22013  0.26645  0.54812  1.0000
  C   C57       1.0  0.72015  0.76648  0.93840  1.0000
  C   C58       1.0  0.22015  0.26648  0.43840  1.0000
  C   C59       1.0  0.65293  0.71494  0.88356  1.0000
  C   C60       1.0  0.15293  0.21494  0.38357  1.0000
  C   C61       1.0  0.58569  0.66336  0.93846  1.0000
  C   C62       1.0  0.08569  0.16337  0.43846  1.0000
  C   C63       1.0  0.58567  0.66334  0.04818  1.0000
  C   C64       1.0  0.08567  0.16334  0.54818  1.0000
  C   C65       1.0  0.45123  0.56025  0.93852  1.0000
  C   C66       1.0  0.95123  0.06025  0.43852  1.0000
  C   C67       1.0  0.45121  0.56022  0.04824  1.0000
  C   C68       1.0  0.95121  0.06022  0.54824  1.0000
  C   C69       1.0  0.38401  0.50870  0.88369  1.0000
  C   C70       1.0  0.88401  0.00870  0.38369  1.0000
  C   C71       1.0  0.31677  0.45713  0.93858  1.0000
  C   C72       1.0  0.81677  0.95713  0.43858  1.0000
  C   C73       1.0  0.31675  0.45710  0.04831  1.0000
  C   C74       1.0  0.81675  0.95710  0.54831  1.0000
  C   C75       1.0  0.38397  0.50865  0.10313  1.0000
  C   C76       1.0  0.88397  0.00864  0.60313  1.0000
  C   C77       1.0  0.51830  0.61163  0.76685  1.0000
  C   C78       1.0  0.01830  0.11163  0.26685  1.0000
  C   C79       1.0  0.51847  0.61182  0.88363  1.0000
  C   C80       1.0  0.01847  0.11182  0.38363  1.0000
  H   H1        1.0  0.21790  0.71491  0.62802  1.0000
  H   H2        1.0  0.71790  0.21491  0.12802  1.0000
  Cl  Cl1       1.0  0.65287  0.71484  0.24095  1.0000
  Cl  Cl2       1.0  0.15287  0.21484  0.74095  1.0000
  Cl  Cl3       1.0  0.80461  0.83127  0.11706  1.0000
  Cl  Cl4       1.0  0.30461  0.33127  0.61705  1.0000
  H   H3        1.0  0.11842  0.41471  0.23809  1.0000
  H   H4        1.0  0.61842  0.91471  0.73809  1.0000
  H   H5        1.0  0.26198  0.41511  0.09299  1.0000
  H   H6        1.0  0.76198  0.91511  0.59299  1.0000
  H   H7        1.0  0.81977  0.71489  0.62796  1.0000
  H   H8        1.0  0.31977  0.21490  0.12796  1.0000
  H   H9        1.0  0.81980  0.50837  0.35971  1.0000
  H   H10       1.0  0.31980  0.00837  0.85971  1.0000
  H   H11       1.0  0.77490  0.80848  0.89370  1.0000
  H   H12       1.0  0.27490  0.30848  0.39370  1.0000
  H   H13       1.0  0.91935  0.41470  0.23806  1.0000
  H   H14       1.0  0.41935  0.91470  0.73806  1.0000
  Cl  Cl5       1.0  0.65295  0.71498  0.74563  1.0000
  Cl  Cl6       1.0  0.15295  0.21498  0.24563  1.0000
  Cl  Cl7       1.0  0.89498  0.83144  0.77935  1.0000
  Cl  Cl8       1.0  0.39498  0.33144  0.27935  1.0000
  H   H15       1.0  0.11835  0.80860  0.74968  1.0000
  H   H16       1.0  0.61835  0.30860  0.24968  1.0000
  H   H17       1.0  0.38403  0.50874  0.79435  1.0000
  H   H18       1.0  0.88403  0.00874  0.29434  1.0000
  H   H19       1.0  0.38396  0.50862  0.19247  1.0000
  H   H20       1.0  0.88396  0.00862  0.69247  1.0000
  Cl  Cl9       1.0  0.26653  0.50838  0.35978  1.0000
  Cl  Cl10      1.0  0.76653  0.00838  0.85978  1.0000
  Cl  Cl11      1.0  0.23226  0.39234  0.86964  1.0000
  Cl  Cl12      1.0  0.73226  0.89234  0.36964  1.0000
