data_image0
_chemical_formula_structural       Zn4O13C50HBrH4BrH3Br4HBr2HBr3HBr4H2BrH
_chemical_formula_sum              "Zn4 O13 C50 H14 Br16"
_cell_length_a       12.5945
_cell_length_b       21.3954
_cell_length_c       21.3954
_cell_angle_alpha    89.9709
_cell_angle_beta     89.9776
_cell_angle_gamma    90.0284

_space_group_name_H-M_alt    "P 1"
_space_group_IT_number       1

loop_
  _space_group_symop_operation_xyz
  'x, y, z'

loop_
  _atom_site_type_symbol
  _atom_site_label
  _atom_site_symmetry_multiplicity
  _atom_site_fract_x
  _atom_site_fract_y
  _atom_site_fract_z
  _atom_site_occupancy
  Zn  Zn1       1.0  0.37279  0.64566  0.75046  1.0000
  Zn  Zn2       1.0  0.37294  0.75045  0.64568  1.0000
  Zn  Zn3       1.0  0.55080  0.75044  0.75045  1.0000
  Zn  Zn4       1.0  0.55084  0.64571  0.64573  1.0000
  O   O1        1.0  0.46184  0.69806  0.69808  1.0000
  O   O2        1.0  0.22387  0.65955  0.73655  1.0000
  O   O3        1.0  0.39658  0.83812  0.65956  1.0000
  O   O4        1.0  0.52710  0.73652  0.83813  1.0000
  O   O5        1.0  0.22398  0.73653  0.65957  1.0000
  O   O6        1.0  0.39632  0.65954  0.83814  1.0000
  O   O7        1.0  0.52725  0.83812  0.73653  1.0000
  O   O8        1.0  0.69975  0.73656  0.73658  1.0000
  O   O9        1.0  0.52718  0.55803  0.65964  1.0000
  O   O10       1.0  0.69978  0.65962  0.65963  1.0000
  O   O11       1.0  0.39636  0.55799  0.73659  1.0000
  O   O12       1.0  0.39663  0.73657  0.55801  1.0000
  O   O13       1.0  0.52732  0.65963  0.55804  1.0000
  C   C1        1.0  0.73838  0.69810  0.69811  1.0000
  C   C2        1.0  0.85669  0.69809  0.69810  1.0000
  C   C3        1.0  0.92595  0.73986  0.74001  1.0000
  C   C4        1.0  0.99679  0.75529  0.68287  1.0000
  C   C5        1.0  0.99666  0.68267  0.75523  1.0000
  C   C6        1.0  0.92596  0.71354  0.64093  1.0000
  C   C7        1.0  0.92583  0.64091  0.71333  1.0000
  C   C8        1.0  0.99662  0.65630  0.65615  1.0000
  C   C9        1.0  0.46197  0.69810  0.53529  1.0000
  C   C10       1.0  0.46192  0.69809  0.46565  1.0000
  C   C11       1.0  0.18422  0.69805  0.69807  1.0000
  C   C12       1.0  0.06592  0.69807  0.69809  1.0000
  C   C13       1.0  0.46176  0.53464  0.69812  1.0000
  C   C14       1.0  0.46172  0.46500  0.69814  1.0000
  C   C15       1.0  0.52974  0.43229  0.73822  1.0000
  C   C16       1.0  0.52975  0.36686  0.73823  1.0000
  C   C17       1.0  0.46171  0.33413  0.69817  1.0000
  C   C18       1.0  0.39369  0.36685  0.65807  1.0000
  C   C19       1.0  0.39369  0.43228  0.65806  1.0000
  C   C20       1.0  0.36581  0.23044  0.69324  1.0000
  C   C21       1.0  0.36580  0.16501  0.69325  1.0000
  C   C22       1.0  0.46169  0.13231  0.69821  1.0000
  C   C23       1.0  0.55759  0.16506  0.70316  1.0000
  C   C24       1.0  0.55760  0.23049  0.70314  1.0000
  C   C25       1.0  0.46170  0.26318  0.69818  1.0000
  C   C26       1.0  0.52972  0.02865  0.73831  1.0000
  C   C27       1.0  0.52973  0.96321  0.73832  1.0000
  C   C28       1.0  0.39366  0.96320  0.65816  1.0000
  C   C29       1.0  0.39366  0.02864  0.65815  1.0000
  C   C30       1.0  0.46169  0.06136  0.69823  1.0000
  C   C31       1.0  0.46186  0.86085  0.69809  1.0000
  C   C32       1.0  0.46169  0.93049  0.69825  1.0000
  C   C33       1.0  0.39353  0.73803  0.96386  1.0000
  C   C34       1.0  0.39357  0.73804  0.02930  1.0000
  C   C35       1.0  0.46169  0.69802  0.06201  1.0000
  C   C36       1.0  0.52980  0.65799  0.02929  1.0000
  C   C37       1.0  0.52976  0.65798  0.96386  1.0000
  C   C38       1.0  0.47020  0.64159  0.16571  1.0000
  C   C39       1.0  0.47023  0.64160  0.23115  1.0000
  C   C40       1.0  0.46181  0.69805  0.26384  1.0000
  C   C41       1.0  0.45333  0.75449  0.23108  1.0000
  C   C42       1.0  0.45330  0.75448  0.16565  1.0000
  C   C43       1.0  0.46174  0.69803  0.13297  1.0000
  C   C44       1.0  0.39375  0.73809  0.36750  1.0000
  C   C45       1.0  0.39380  0.73811  0.43294  1.0000
  C   C46       1.0  0.53002  0.65805  0.43293  1.0000
  C   C47       1.0  0.52998  0.65804  0.36750  1.0000
  C   C48       1.0  0.46184  0.69806  0.33479  1.0000
  C   C49       1.0  0.46169  0.69802  0.86151  1.0000
  C   C50       1.0  0.46162  0.69800  0.93115  1.0000
  H   H1        1.0  0.58514  0.45893  0.77085  1.0000
  Br  Br1       1.0  0.30137  0.47667  0.60365  1.0000
  H   H2        1.0  0.47687  0.59561  0.13911  1.0000
  H   H3        1.0  0.33829  0.34020  0.62545  1.0000
  H   H4        1.0  0.33805  0.77062  0.93723  1.0000
  H   H5        1.0  0.47712  0.59564  0.25781  1.0000
  Br  Br2       1.0  0.62249  0.60374  0.47733  1.0000
  H   H6        1.0  0.89492  0.77523  0.77542  1.0000
  H   H7        1.0  0.02795  0.80364  0.66998  1.0000
  H   H8        1.0  0.02777  0.66966  0.80355  1.0000
  Br  Br3       1.0  0.30139  0.79244  0.47734  1.0000
  Br  Br4       1.0  0.68774  0.12069  0.70989  1.0000
  Br  Br5       1.0  0.62225  0.60368  0.07369  1.0000
  Br  Br6       1.0  0.87443  0.73536  0.56037  1.0000
  H   H9        1.0  0.02746  0.62097  0.62066  1.0000
  Br  Br7       1.0  0.62238  0.60371  0.32310  1.0000
  Br  Br8       1.0  0.87384  0.56034  0.73484  1.0000
  H   H10       1.0  0.28771  0.13835  0.68923  1.0000
  Br  Br9       1.0  0.62218  0.60365  0.91945  1.0000
  Br  Br10      1.0  0.30116  0.79237  0.07371  1.0000
  Br  Br11      1.0  0.30129  0.79241  0.32310  1.0000
  H   H11       1.0  0.28772  0.25706  0.68921  1.0000
  Br  Br12      1.0  0.62204  0.32246  0.79265  1.0000
  Br  Br13      1.0  0.62205  0.07306  0.79270  1.0000
  Br  Br14      1.0  0.62209  0.91883  0.79270  1.0000
  Br  Br15      1.0  0.68774  0.27493  0.70985  1.0000
  H   H12       1.0  0.33826  0.93656  0.62554  1.0000
  H   H13       1.0  0.44647  0.80046  0.25770  1.0000
  Br  Br16      1.0  0.30134  0.07303  0.60375  1.0000
  H   H14       1.0  0.44640  0.80044  0.13898  1.0000
