data_image0
_chemical_formula_structural       Zn4O13C26H3BrH2BrH2Br2H2BrHBr
_chemical_formula_sum              "Zn4 O13 C26 H10 Br6"
_cell_length_a       12.6453
_cell_length_b       16.1205
_cell_length_c       16.1203
_cell_angle_alpha    90.1297
_cell_angle_beta     92.8768
_cell_angle_gamma    87.1103

_space_group_name_H-M_alt    "P 1"
_space_group_IT_number       1

loop_
  _space_group_symop_operation_xyz
  'x, y, z'

loop_
  _atom_site_type_symbol
  _atom_site_label
  _atom_site_symmetry_multiplicity
  _atom_site_fract_x
  _atom_site_fract_y
  _atom_site_fract_z
  _atom_site_occupancy
  Zn  Zn1       1.0  0.46283  0.24749  0.46544  1.0000
  Zn  Zn2       1.0  0.29407  0.25445  0.60448  1.0000
  Zn  Zn3       1.0  0.48076  0.11548  0.61152  1.0000
  Zn  Zn4       1.0  0.29506  0.10841  0.47251  1.0000
  O   O1        1.0  0.38318  0.18146  0.53849  1.0000
  O   O2        1.0  0.43253  0.36478  0.47798  1.0000
  O   O3        1.0  0.32592  0.24189  0.72178  1.0000
  O   O4        1.0  0.62672  0.13303  0.59212  1.0000
  O   O5        1.0  0.30854  0.36990  0.58013  1.0000
  O   O6        1.0  0.61355  0.23002  0.48479  1.0000
  O   O7        1.0  0.46308  0.13979  0.72695  1.0000
  O   O8        1.0  0.46404  0.99817  0.59898  1.0000
  O   O9        1.0  0.31023  0.12098  0.35521  1.0000
  O   O10       1.0  0.32760  0.99298  0.49685  1.0000
  O   O11       1.0  0.43349  0.22317  0.35001  1.0000
  O   O12       1.0  0.14586  0.23504  0.58699  1.0000
  O   O13       1.0  0.14658  0.12774  0.49003  1.0000
  C   C1        1.0  0.39787  0.96540  0.54945  1.0000
  C   C2        1.0  0.40413  0.87297  0.55412  1.0000
  C   C3        1.0  0.10775  0.18140  0.53850  1.0000
  C   C4        1.0  0.98992  0.18145  0.53847  1.0000
  C   C5        1.0  0.35072  0.66001  0.51426  1.0000
  C   C6        1.0  0.41555  0.70375  0.56264  1.0000
  C   C7        1.0  0.40919  0.79791  0.55790  1.0000
  C   C8        1.0  0.35708  0.56584  0.51901  1.0000
  C   C9        1.0  0.82274  0.11420  0.47727  1.0000
  C   C10       1.0  0.94533  0.11388  0.47749  1.0000
  C   C11       1.0  0.95231  0.16217  0.62731  1.0000
  C   C12       1.0  0.82971  0.16176  0.62694  1.0000
  C   C13       1.0  0.81547  0.26840  0.51154  1.0000
  C   C14       1.0  0.93800  0.26776  0.50965  1.0000
  C   C15       1.0  0.65968  0.18154  0.53845  1.0000
  C   C16       1.0  0.77750  0.18157  0.53844  1.0000
  C   C17       1.0  0.36997  0.17051  0.32159  1.0000
  C   C18       1.0  0.36434  0.16585  0.22916  1.0000
  C   C19       1.0  0.36843  0.39835  0.52748  1.0000
  C   C20       1.0  0.36214  0.49078  0.52279  1.0000
  C   C21       1.0  0.35408  0.15730  0.05994  1.0000
  C   C22       1.0  0.41258  0.20578  0.01617  1.0000
  C   C23       1.0  0.40687  0.20102  0.92201  1.0000
  C   C24       1.0  0.35979  0.16205  0.15411  1.0000
  C   C25       1.0  0.39641  0.19241  0.75453  1.0000
  C   C26       1.0  0.40233  0.19723  0.84695  1.0000
  H   H1        1.0  0.47582  0.67047  0.60763  1.0000
  H   H2        1.0  0.29046  0.69329  0.46928  1.0000
  H   H3        1.0  0.97050  0.12543  0.41176  1.0000
  Br  Br1       1.0  0.78029  0.24039  0.70590  1.0000
  H   H4        1.0  0.96790  0.32024  0.55061  1.0000
  H   H5        1.0  0.77931  0.28685  0.44763  1.0000
  Br  Br2       1.0  0.50317  0.28093  0.07159  1.0000
  H   H6        1.0  0.78833  0.12560  0.41133  1.0000
  H   H7        1.0  0.97991  0.04943  0.49566  1.0000
  Br  Br3       1.0  0.78004  0.00743  0.50718  1.0000
  Br  Br4       1.0  0.79110  0.05619  0.66406  1.0000
  H   H8        1.0  0.29972  0.11223  0.02669  1.0000
  H   H9        1.0  0.98142  0.20988  0.67433  1.0000
  Br  Br5       1.0  0.01250  0.05775  0.66495  1.0000
  H   H10       1.0  0.78611  0.31854  0.55604  1.0000
  Br  Br6       1.0  0.97797  0.29213  0.40064  1.0000
