data_image0
_chemical_formula_structural       Zn4O13C34H2CNCNH3CNCNH2CNH3CN
_chemical_formula_sum              "Zn4 O13 C40 H10 N6"
_cell_length_a       12.7594
_cell_length_b       16.9595
_cell_length_c       12.7594
_cell_angle_alpha    89.971
_cell_angle_beta     89.9795
_cell_angle_gamma    90.0216

_space_group_name_H-M_alt    "P 1"
_space_group_IT_number       1

loop_
  _space_group_symop_operation_xyz
  'x, y, z'

loop_
  _atom_site_type_symbol
  _atom_site_label
  _atom_site_symmetry_multiplicity
  _atom_site_fract_x
  _atom_site_fract_y
  _atom_site_fract_z
  _atom_site_occupancy
  Zn  Zn1       1.0  0.60622  0.68538  0.40597  1.0000
  Zn  Zn2       1.0  0.60610  0.55319  0.58165  1.0000
  Zn  Zn3       1.0  0.43052  0.68534  0.58164  1.0000
  Zn  Zn4       1.0  0.43050  0.55324  0.40601  1.0000
  O   O1        1.0  0.51833  0.61929  0.49382  1.0000
  O   O2        1.0  0.75323  0.66784  0.42927  1.0000
  O   O3        1.0  0.58277  0.57068  0.72867  1.0000
  O   O4        1.0  0.45389  0.79596  0.55831  1.0000
  O   O5        1.0  0.75314  0.57072  0.55834  1.0000
  O   O6        1.0  0.58298  0.79599  0.42925  1.0000
  O   O7        1.0  0.45377  0.66777  0.72866  1.0000
  O   O8        1.0  0.28350  0.66783  0.55835  1.0000
  O   O9        1.0  0.45385  0.57081  0.25899  1.0000
  O   O10       1.0  0.28348  0.57077  0.42932  1.0000
  O   O11       1.0  0.58295  0.66789  0.25896  1.0000
  O   O12       1.0  0.58274  0.44258  0.55837  1.0000
  O   O13       1.0  0.45373  0.44262  0.42933  1.0000
  C   C1        1.0  0.24537  0.61930  0.49384  1.0000
  C   C2        1.0  0.12859  0.61928  0.49382  1.0000
  C   C3        1.0  0.51825  0.41392  0.49384  1.0000
  C   C4        1.0  0.51831  0.32607  0.49381  1.0000
  C   C5        1.0  0.07375  0.56867  0.42674  1.0000
  C   C6        1.0  0.96402  0.56867  0.42672  1.0000
  C   C7        1.0  0.96400  0.66989  0.56087  1.0000
  C   C8        1.0  0.07372  0.66990  0.56089  1.0000
  C   C9        1.0  0.45125  0.95458  0.42664  1.0000
  C   C10       1.0  0.58571  0.95460  0.56090  1.0000
  C   C11       1.0  0.58567  0.03714  0.56091  1.0000
  C   C12       1.0  0.51842  0.07841  0.49378  1.0000
  C   C13       1.0  0.45121  0.03713  0.42665  1.0000
  C   C14       1.0  0.65287  0.07843  0.62805  1.0000
  C   C15       1.0  0.65284  0.16098  0.62806  1.0000
  C   C16       1.0  0.58560  0.20225  0.56093  1.0000
  C   C17       1.0  0.51838  0.16097  0.49379  1.0000
  C   C18       1.0  0.45114  0.20223  0.42666  1.0000
  C   C19       1.0  0.38393  0.16095  0.35952  1.0000
  C   C20       1.0  0.38397  0.07840  0.35951  1.0000
  C   C21       1.0  0.58555  0.28480  0.56094  1.0000
  C   C22       1.0  0.45110  0.28479  0.42667  1.0000
  C   C23       1.0  0.79237  0.61928  0.49380  1.0000
  C   C24       1.0  0.90915  0.61927  0.49379  1.0000
  C   C25       1.0  0.51841  0.61936  0.21979  1.0000
  C   C26       1.0  0.51844  0.61939  0.10301  1.0000
  C   C27       1.0  0.51845  0.82546  0.49378  1.0000
  C   C28       1.0  0.51850  0.91331  0.49376  1.0000
  C   C29       1.0  0.58564  0.56889  0.93842  1.0000
  C   C30       1.0  0.58561  0.56886  0.04814  1.0000
  C   C31       1.0  0.45129  0.66996  0.04815  1.0000
  C   C32       1.0  0.45131  0.67000  0.93843  1.0000
  C   C33       1.0  0.51832  0.61927  0.76679  1.0000
  C   C34       1.0  0.51849  0.61946  0.88356  1.0000
  H   H1        1.0  0.11842  0.52746  0.37213  1.0000
  H   H2        1.0  0.64045  0.92099  0.61555  1.0000
  C   C35       1.0  0.37744  0.72563  0.87808  1.0000
  N   N1        1.0  0.32180  0.76753  0.83263  1.0000
  C   C36       1.0  0.65951  0.51324  0.10847  1.0000
  N   N2        1.0  0.71517  0.47136  0.15392  1.0000
  H   H3        1.0  0.39654  0.92097  0.37197  1.0000
  H   H4        1.0  0.91937  0.52745  0.37210  1.0000
  H   H5        1.0  0.32925  0.04478  0.30485  1.0000
  C   C37       1.0  0.72682  0.03303  0.70189  1.0000
  N   N3        1.0  0.78252  0.99883  0.75752  1.0000
  C   C38       1.0  0.37741  0.72556  0.10851  1.0000
  N   N4        1.0  0.32177  0.76744  0.15397  1.0000
  H   H6        1.0  0.70756  0.19459  0.68273  1.0000
  H   H7        1.0  0.32917  0.19456  0.30487  1.0000
  C   C39       1.0  0.65948  0.33020  0.63479  1.0000
  N   N5        1.0  0.71517  0.36440  0.69042  1.0000
  H   H8        1.0  0.64034  0.52775  0.89375  1.0000
  H   H9        1.0  0.91931  0.71110  0.61547  1.0000
  H   H10       1.0  0.39634  0.31838  0.37201  1.0000
  C   C40       1.0  0.13405  0.72558  0.63469  1.0000
  N   N6        1.0  0.17949  0.76752  0.69027  1.0000
