data_image0
_chemical_formula_structural       Zn4O13C34H6FHF2H2FHFHF5HFH
_chemical_formula_sum              "Zn4 O13 C34 H13 F11"
_cell_length_a       12.7594
_cell_length_b       12.6453
_cell_length_c       12.7594
_cell_angle_alpha    89.9736
_cell_angle_beta     90.0148
_cell_angle_gamma    89.9807

_space_group_name_H-M_alt    "P 1"
_space_group_IT_number       1

loop_
  _space_group_symop_operation_xyz
  'x, y, z'

loop_
  _atom_site_type_symbol
  _atom_site_label
  _atom_site_symmetry_multiplicity
  _atom_site_fract_x
  _atom_site_fract_y
  _atom_site_fract_z
  _atom_site_occupancy
  Zn  Zn1       1.0  0.60626  0.40066  0.58175  1.0000
  Zn  Zn2       1.0  0.60616  0.57793  0.40604  1.0000
  Zn  Zn3       1.0  0.43056  0.57791  0.58171  1.0000
  Zn  Zn4       1.0  0.43055  0.40070  0.40611  1.0000
  O   O1        1.0  0.51838  0.48930  0.49390  1.0000
  O   O2        1.0  0.75327  0.42417  0.55843  1.0000
  O   O3        1.0  0.58282  0.72627  0.42930  1.0000
  O   O4        1.0  0.45392  0.55437  0.72873  1.0000
  O   O5        1.0  0.75319  0.55440  0.42934  1.0000
  O   O6        1.0  0.58301  0.42415  0.72876  1.0000
  O   O7        1.0  0.45381  0.72626  0.55836  1.0000
  O   O8        1.0  0.28354  0.55441  0.55842  1.0000
  O   O9        1.0  0.45390  0.25235  0.42945  1.0000
  O   O10       1.0  0.28354  0.42421  0.42941  1.0000
  O   O11       1.0  0.58300  0.25232  0.55849  1.0000
  O   O12       1.0  0.58281  0.55444  0.25903  1.0000
  O   O13       1.0  0.45380  0.42423  0.25908  1.0000
  C   C1        1.0  0.24542  0.48931  0.49392  1.0000
  C   C2        1.0  0.12864  0.48929  0.49390  1.0000
  C   C3        1.0  0.51846  0.21279  0.49398  1.0000
  C   C4        1.0  0.51850  0.09496  0.49402  1.0000
  C   C5        1.0  0.07380  0.42161  0.42662  1.0000
  C   C6        1.0  0.96408  0.42160  0.42661  1.0000
  C   C7        1.0  0.96404  0.55696  0.56116  1.0000
  C   C8        1.0  0.07376  0.55696  0.56118  1.0000
  C   C9        1.0  0.12868  0.35394  0.35934  1.0000
  C   C10       1.0  0.07384  0.28626  0.29205  1.0000
  C   C11       1.0  0.96412  0.28625  0.29204  1.0000
  C   C12       1.0  0.90923  0.35392  0.35932  1.0000
  C   C13       1.0  0.43703  0.92742  0.41322  1.0000
  C   C14       1.0  0.43725  0.04998  0.41282  1.0000
  C   C15       1.0  0.62920  0.05045  0.46397  1.0000
  C   C16       1.0  0.62875  0.92785  0.46346  1.0000
  C   C17       1.0  0.49030  0.92776  0.60531  1.0000
  C   C18       1.0  0.48783  0.05037  0.60465  1.0000
  C   C19       1.0  0.79242  0.48928  0.49388  1.0000
  C   C20       1.0  0.90919  0.48928  0.49387  1.0000
  C   C21       1.0  0.51832  0.48932  0.22093  1.0000
  C   C22       1.0  0.51839  0.48929  0.10416  1.0000
  C   C23       1.0  0.51837  0.76473  0.49390  1.0000
  C   C24       1.0  0.51854  0.88256  0.49416  1.0000
  C   C25       1.0  0.58564  0.55702  0.04931  1.0000
  C   C26       1.0  0.58571  0.55699  0.93958  1.0000
  C   C27       1.0  0.45126  0.42150  0.93957  1.0000
  C   C28       1.0  0.45120  0.42153  0.04929  1.0000
  C   C29       1.0  0.65283  0.62478  0.10417  1.0000
  C   C30       1.0  0.72009  0.69251  0.04932  1.0000
  C   C31       1.0  0.72016  0.69248  0.93959  1.0000
  C   C32       1.0  0.65296  0.62472  0.88472  1.0000
  C   C33       1.0  0.51848  0.48925  0.76793  1.0000
  C   C34       1.0  0.51851  0.48923  0.88471  1.0000
  H   H1        1.0  0.21802  0.35395  0.35934  1.0000
  H   H2        1.0  0.39655  0.36633  0.89489  1.0000
  H   H3        1.0  0.65268  0.89924  0.38221  1.0000
  H   H4        1.0  0.81989  0.35390  0.35931  1.0000
  H   H5        1.0  0.69154  0.89817  0.51986  1.0000
  H   H6        1.0  0.91934  0.61206  0.61594  1.0000
  F   F1        1.0  0.13226  0.21424  0.22046  1.0000
  H   H7        1.0  0.69155  0.07959  0.52106  1.0000
  F   F2        1.0  0.90576  0.21421  0.22043  1.0000
  F   F3        1.0  0.79174  0.76455  0.88122  1.0000
  H   H8        1.0  0.39644  0.36638  0.09395  1.0000
  H   H9        1.0  0.11841  0.61207  0.61598  1.0000
  F   F4        1.0  0.66102  0.09056  0.35887  1.0000
  H   H10       1.0  0.41098  0.89685  0.63270  1.0000
  F   F5        1.0  0.32995  0.08932  0.43740  1.0000
  H   H11       1.0  0.45549  0.89660  0.33133  1.0000
  F   F6        1.0  0.32941  0.88889  0.43756  1.0000
  F   F7        1.0  0.46166  0.08830  0.30512  1.0000
  F   F8        1.0  0.38134  0.08838  0.63426  1.0000
  F   F9        1.0  0.55977  0.09038  0.68763  1.0000
  F   F10       1.0  0.65270  0.62503  0.76794  1.0000
  H   H12       1.0  0.54967  0.89875  0.66561  1.0000
  F   F11       1.0  0.65300  0.62459  0.22095  1.0000
  H   H13       1.0  0.77480  0.74768  0.09400  1.0000
