data_image0
_chemical_formula_structural       Zn4O13C18HCH5CH3CH3CH6CH4
_chemical_formula_sum              "Zn4 O13 C23 H22"
_cell_length_a       13.0328
_cell_length_b       13.0338
_cell_length_c       13.0331
_cell_angle_alpha    90.9151
_cell_angle_beta     103.334
_cell_angle_gamma    74.8278

_space_group_name_H-M_alt    "P 1"
_space_group_IT_number       1

loop_
  _space_group_symop_operation_xyz
  'x, y, z'

loop_
  _atom_site_type_symbol
  _atom_site_label
  _atom_site_symmetry_multiplicity
  _atom_site_fract_x
  _atom_site_fract_y
  _atom_site_fract_z
  _atom_site_occupancy
  Zn  Zn1       1.0  0.21701  0.73467  0.27626  1.0000
  Zn  Zn2       1.0  0.22283  0.88400  0.47068  1.0000
  Zn  Zn3       1.0  0.42292  0.68384  0.47064  1.0000
  Zn  Zn4       1.0  0.37782  0.88391  0.31562  1.0000
  O   O1        1.0  0.31014  0.79661  0.38330  1.0000
  O   O2        1.0  0.06674  0.77579  0.28559  1.0000
  O   O3        1.0  0.27068  0.83622  0.61691  1.0000
  O   O4        1.0  0.41204  0.54435  0.42837  1.0000
  O   O5        1.0  0.07101  0.88551  0.42843  1.0000
  O   O6        1.0  0.26076  0.58170  0.28555  1.0000
  O   O7        1.0  0.41768  0.68916  0.61689  1.0000
  O   O8        1.0  0.56798  0.68907  0.46654  1.0000
  O   O9        1.0  0.33518  0.88535  0.16416  1.0000
  O   O10       1.0  0.53485  0.83606  0.35265  1.0000
  O   O11       1.0  0.21703  0.77570  0.13524  1.0000
  O   O12       1.0  0.22695  0.03022  0.46660  1.0000
  O   O13       1.0  0.34083  0.03015  0.35268  1.0000
  C   C1        1.0  0.59057  0.75704  0.41386  1.0000
  C   C2        1.0  0.71053  0.74014  0.42692  1.0000
  C   C3        1.0  0.27959  0.06811  0.41389  1.0000
  C   C4        1.0  0.26642  0.18428  0.42693  1.0000
  C   C5        1.0  0.27043  0.83618  0.11072  1.0000
  C   C6        1.0  0.25350  0.85305  0.99456  1.0000
  C   C7        1.0  0.02862  0.83633  0.35262  1.0000
  C   C8        1.0  0.90865  0.85325  0.33954  1.0000
  C   C9        1.0  0.74760  0.80542  0.37649  1.0000
  C   C10       1.0  0.87159  0.78796  0.38998  1.0000
  C   C11       1.0  0.30335  0.35612  0.38992  1.0000
  C   C12       1.0  0.31696  0.23605  0.37644  1.0000
  C   C13       1.0  0.34079  0.52405  0.35256  1.0000
  C   C14       1.0  0.35388  0.40790  0.33944  1.0000
  C   C15       1.0  0.31869  0.78781  0.94276  1.0000
  C   C16       1.0  0.30120  0.80524  0.82271  1.0000
  C   C17       1.0  0.34965  0.75711  0.65481  1.0000
  C   C18       1.0  0.36640  0.73998  0.77091  1.0000
  H   H1        1.0  0.68754  0.87424  0.32333  1.0000
  C   C19       1.0  0.23130  0.41630  0.46180  1.0000
  H   H2        1.0  0.23160  0.48911  0.46142  1.0000
  H   H3        1.0  0.25926  0.38609  0.53176  1.0000
  H   H4        1.0  0.15856  0.41086  0.43653  1.0000
  H   H5        1.0  0.37030  0.19150  0.32323  1.0000
  H   H6        1.0  0.21309  0.22883  0.48014  1.0000
  C   C20       1.0  0.42593  0.34772  0.26756  1.0000
  H   H7        1.0  0.42562  0.27492  0.26792  1.0000
  H   H8        1.0  0.49866  0.35316  0.29280  1.0000
  H   H9        1.0  0.39795  0.37794  0.19759  1.0000
  C   C21       1.0  0.41158  0.69491  0.00291  1.0000
  H   H10       1.0  0.41115  0.69538  0.07571  1.0000
  H   H11       1.0  0.47980  0.70254  0.99470  1.0000
  H   H12       1.0  0.40109  0.62950  0.97544  1.0000
  C   C22       1.0  0.20830  0.89813  0.76256  1.0000
  H   H13       1.0  0.20873  0.89766  0.68976  1.0000
  H   H14       1.0  0.21878  0.96354  0.79003  1.0000
  H   H15       1.0  0.14008  0.89049  0.77076  1.0000
  H   H16       1.0  0.93164  0.71913  0.44314  1.0000
  H   H17       1.0  0.84859  0.92207  0.28637  1.0000
  H   H18       1.0  0.43517  0.67122  0.81544  1.0000
  C   C23       1.0  0.79165  0.64717  0.49873  1.0000
  H   H19       1.0  0.75232  0.60847  0.52861  1.0000
  H   H20       1.0  0.83778  0.67429  0.55357  1.0000
  H   H21       1.0  0.83489  0.60136  0.45829  1.0000
  H   H22       1.0  0.18474  0.92181  0.95003  1.0000
