data_image0
_chemical_formula_structural       Zn4O13C30HCl2H7Cl5H3
_chemical_formula_sum              "Zn4 O13 C30 H11 Cl7"
_cell_length_a       12.7594
_cell_length_b       12.5945
_cell_length_c       12.7594
_cell_angle_alpha    89.9629
_cell_angle_beta     90.0185
_cell_angle_gamma    89.9822

_space_group_name_H-M_alt    "P 1"
_space_group_IT_number       1

loop_
  _space_group_symop_operation_xyz
  'x, y, z'

loop_
  _atom_site_type_symbol
  _atom_site_label
  _atom_site_symmetry_multiplicity
  _atom_site_fract_x
  _atom_site_fract_y
  _atom_site_fract_z
  _atom_site_occupancy
  Zn  Zn1       1.0  0.60623  0.42367  0.59394  1.0000
  Zn  Zn2       1.0  0.60612  0.60169  0.41824  1.0000
  Zn  Zn3       1.0  0.43054  0.42373  0.41828  1.0000
  Zn  Zn4       1.0  0.43052  0.60161  0.59389  1.0000
  O   O1        1.0  0.51835  0.51268  0.50609  1.0000
  O   O2        1.0  0.75324  0.44730  0.57064  1.0000
  O   O3        1.0  0.58279  0.57814  0.27123  1.0000
  O   O4        1.0  0.45390  0.27478  0.44162  1.0000
  O   O5        1.0  0.75316  0.57809  0.44156  1.0000
  O   O6        1.0  0.58298  0.27474  0.57068  1.0000
  O   O7        1.0  0.45379  0.44739  0.27126  1.0000
  O   O8        1.0  0.28351  0.44732  0.44157  1.0000
  O   O9        1.0  0.45387  0.57795  0.74091  1.0000
  O   O10       1.0  0.28350  0.57800  0.57058  1.0000
  O   O11       1.0  0.58296  0.44722  0.74096  1.0000
  O   O12       1.0  0.58277  0.75063  0.44151  1.0000
  O   O13       1.0  0.45375  0.75057  0.57055  1.0000
  C   C1        1.0  0.24538  0.51266  0.50607  1.0000
  C   C2        1.0  0.12861  0.51268  0.50609  1.0000
  C   C3        1.0  0.51828  0.78922  0.50604  1.0000
  C   C4        1.0  0.51834  0.90752  0.50605  1.0000
  C   C5        1.0  0.07377  0.58083  0.57316  1.0000
  C   C6        1.0  0.96404  0.58085  0.57317  1.0000
  C   C7        1.0  0.96401  0.44454  0.43904  1.0000
  C   C8        1.0  0.07373  0.44452  0.43903  1.0000
  C   C9        1.0  0.07378  0.65953  0.65060  1.0000
  C   C10       1.0  0.96406  0.65955  0.65061  1.0000
  C   C11       1.0  0.58859  0.97677  0.43594  1.0000
  C   C12       1.0  0.61425  0.04746  0.53182  1.0000
  C   C13       1.0  0.49278  0.04763  0.41021  1.0000
  C   C14       1.0  0.54406  0.97666  0.60199  1.0000
  C   C15       1.0  0.42254  0.97682  0.48031  1.0000
  C   C16       1.0  0.44817  0.04748  0.57626  1.0000
  C   C17       1.0  0.79238  0.51270  0.50610  1.0000
  C   C18       1.0  0.90916  0.51271  0.50611  1.0000
  C   C19       1.0  0.51842  0.51257  0.78012  1.0000
  C   C20       1.0  0.51846  0.51253  0.89690  1.0000
  C   C21       1.0  0.51843  0.23506  0.50613  1.0000
  C   C22       1.0  0.51840  0.11675  0.50608  1.0000
  C   C23       1.0  0.51834  0.51271  0.23312  1.0000
  C   C24       1.0  0.51851  0.51245  0.11634  1.0000
  C   C25       1.0  0.58569  0.44445  0.95178  1.0000
  C   C26       1.0  0.58571  0.44441  0.06151  1.0000
  C   C27       1.0  0.45127  0.58054  0.06145  1.0000
  C   C28       1.0  0.45124  0.58057  0.95173  1.0000
  C   C29       1.0  0.66331  0.36586  0.95182  1.0000
  C   C30       1.0  0.66333  0.36582  0.06154  1.0000
  H   H1        1.0  0.11838  0.38901  0.38443  1.0000
  Cl  Cl1       1.0  0.62971  0.23860  0.90588  1.0000
  Cl  Cl2       1.0  0.89502  0.35887  0.35474  1.0000
  H   H2        1.0  0.10779  0.73780  0.62131  1.0000
  H   H3        1.0  0.56562  0.94561  0.68313  1.0000
  H   H4        1.0  0.69530  0.07850  0.55361  1.0000
  H   H5        1.0  0.39655  0.63593  0.10611  1.0000
  H   H6        1.0  0.74470  0.38790  0.09132  1.0000
  H   H7        1.0  0.93006  0.63012  0.72796  1.0000
  H   H8        1.0  0.74058  0.39541  0.91778  1.0000
  Cl  Cl3       1.0  0.91804  0.78677  0.61670  1.0000
  Cl  Cl4       1.0  0.11981  0.62559  0.77628  1.0000
  Cl  Cl5       1.0  0.36670  0.66614  0.88274  1.0000
  Cl  Cl6       1.0  0.68032  0.92883  0.34448  1.0000
  Cl  Cl7       1.0  0.35650  0.09512  0.66793  1.0000
  H   H9        1.0  0.63423  0.28750  0.09560  1.0000
  H   H10       1.0  0.47114  0.07881  0.32914  1.0000
  H   H11       1.0  0.34152  0.94576  0.45849  1.0000
