data_image0
_chemical_formula_structural       ZrO12Zr5O20C54HNH2NH5NH2NH2NH4NH2NH8NH2NH3NH3NH2NH2
_chemical_formula_sum              "Zr6 O32 C54 H38 N12"
_cell_length_a       19.8516
_cell_length_b       12.9705
_cell_length_c       12.9705
_cell_angle_alpha    120
_cell_angle_beta     89.9955
_cell_angle_gamma    59.9983

_space_group_name_H-M_alt    "P 1"
_space_group_IT_number       1

loop_
  _space_group_symop_operation_xyz
  'x, y, z'

loop_
  _atom_site_type_symbol
  _atom_site_label
  _atom_site_symmetry_multiplicity
  _atom_site_fract_x
  _atom_site_fract_y
  _atom_site_fract_z
  _atom_site_occupancy
  Zr  Zr1       1.0  0.64898  0.12841  0.13518  1.0000
  O   O1        1.0  0.54141  0.34352  0.29983  1.0000
  O   O2        1.0  0.68195  0.91331  0.08471  1.0000
  O   O3        1.0  0.68195  0.12840  0.29980  1.0000
  O   O4        1.0  0.54141  0.12842  0.91507  1.0000
  O   O5        1.0  0.79281  0.12838  0.29978  1.0000
  O   O6        1.0  0.54141  0.12842  0.08474  1.0000
  O   O7        1.0  0.79282  0.74362  0.91502  1.0000
  O   O8        1.0  0.54141  0.51318  0.29983  1.0000
  O   O9        1.0  0.77875  0.00176  0.06317  1.0000
  O   O10       1.0  0.69602  0.00178  0.93656  1.0000
  O   O11       1.0  0.69601  0.25502  0.18981  1.0000
  O   O12       1.0  0.61328  0.25503  0.06320  1.0000
  Zr  Zr2       1.0  0.82579  0.12837  0.86455  1.0000
  Zr  Zr3       1.0  0.82579  0.12837  0.13515  1.0000
  Zr  Zr4       1.0  0.64898  0.12840  0.86458  1.0000
  Zr  Zr5       1.0  0.64898  0.39901  0.13519  1.0000
  Zr  Zr6       1.0  0.82579  0.85777  0.86455  1.0000
  O   O13       1.0  0.79282  0.34347  0.91503  1.0000
  O   O14       1.0  0.79281  0.34347  0.29978  1.0000
  O   O15       1.0  0.54141  0.34351  0.91507  1.0000
  O   O16       1.0  0.93336  0.91326  0.69991  1.0000
  O   O17       1.0  0.93335  0.91326  0.08467  1.0000
  O   O18       1.0  0.68196  0.91331  0.69995  1.0000
  O   O19       1.0  0.93335  0.12835  0.08467  1.0000
  O   O20       1.0  0.79282  0.12838  0.69993  1.0000
  O   O21       1.0  0.68196  0.12840  0.69995  1.0000
  O   O22       1.0  0.93336  0.12835  0.91500  1.0000
  O   O23       1.0  0.68195  0.51316  0.29980  1.0000
  O   O24       1.0  0.79282  0.74362  0.69993  1.0000
  O   O25       1.0  0.93336  0.74359  0.69991  1.0000
  O   O26       1.0  0.93336  0.74360  0.91500  1.0000
  O   O27       1.0  0.54141  0.51318  0.08474  1.0000
  O   O28       1.0  0.68195  0.51316  0.08471  1.0000
  O   O29       1.0  0.77875  0.00176  0.80993  1.0000
  O   O30       1.0  0.86149  0.00175  0.93653  1.0000
  O   O31       1.0  0.77875  0.25500  0.06317  1.0000
  O   O32       1.0  0.69602  0.25502  0.93657  1.0000
  C   C1        1.0  0.73738  0.78991  0.99987  1.0000
  C   C2        1.0  0.73738  0.67503  0.99987  1.0000
  C   C3        1.0  0.51622  0.12843  0.99991  1.0000
  C   C4        1.0  0.44116  0.12844  0.99992  1.0000
  C   C5        1.0  0.21470  0.26650  0.06893  1.0000
  C   C6        1.0  0.19234  0.19747  0.11896  1.0000
  C   C7        1.0  0.30375  0.12840  0.99989  1.0000
  C   C8        1.0  0.19237  0.19744  0.94988  1.0000
  C   C9        1.0  0.17102  0.12838  0.99985  1.0000
  C   C10       1.0  0.28238  0.05938  0.04999  1.0000
  C   C11       1.0  0.28241  0.05937  0.88084  1.0000
  C   C12       1.0  0.26010  0.99024  0.93084  1.0000
  C   C13       1.0  0.38021  0.12842  0.99991  1.0000
  C   C14       1.0  0.09456  0.12835  0.99983  1.0000
  C   C15       1.0  0.95855  0.12835  0.99983  1.0000
  C   C16       1.0  0.03361  0.12834  0.99981  1.0000
  C   C17       1.0  0.73738  0.12839  0.33835  1.0000
  C   C18       1.0  0.73738  0.12839  0.45322  1.0000
  C   C19       1.0  0.73738  0.46687  0.99987  1.0000
  C   C20       1.0  0.73738  0.58174  0.99987  1.0000
  C   C21       1.0  0.73738  0.12839  0.66139  1.0000
  C   C22       1.0  0.73738  0.12839  0.54651  1.0000
  C   C23       1.0  0.95855  0.78987  0.99983  1.0000
  C   C24       1.0  0.03361  0.67498  0.99981  1.0000
  C   C25       1.0  0.73739  0.78991  0.66139  1.0000
  C   C26       1.0  0.73739  0.67503  0.54651  1.0000
  C   C27       1.0  0.95855  0.78987  0.66135  1.0000
  C   C28       1.0  0.03361  0.67498  0.54646  1.0000
  C   C29       1.0  0.51622  0.46691  0.33839  1.0000
  C   C30       1.0  0.44115  0.58180  0.45328  1.0000
  C   C31       1.0  0.51622  0.46691  0.99991  1.0000
  C   C32       1.0  0.44116  0.58180  0.99993  1.0000
  C   C33       1.0  0.73738  0.46687  0.33835  1.0000
  C   C34       1.0  0.73738  0.58175  0.45323  1.0000
  C   C35       1.0  0.02567  0.62103  0.06592  1.0000
  C   C36       1.0  0.09619  0.51310  0.06593  1.0000
  C   C37       1.0  0.17465  0.45910  0.99983  1.0000
  C   C38       1.0  0.18259  0.51306  0.93372  1.0000
  C   C39       1.0  0.11207  0.62100  0.93371  1.0000
  C   C40       1.0  0.11206  0.62102  0.55859  1.0000
  C   C41       1.0  0.18259  0.51308  0.45065  1.0000
  C   C42       1.0  0.17468  0.45910  0.33057  1.0000
  C   C43       1.0  0.09623  0.51307  0.31844  1.0000
  C   C44       1.0  0.02570  0.62101  0.42638  1.0000
  C   C45       1.0  0.36271  0.63577  0.44115  1.0000
  C   C46       1.0  0.29217  0.74375  0.54909  1.0000
  C   C47       1.0  0.30008  0.79773  0.66917  1.0000
  C   C48       1.0  0.37853  0.74375  0.68129  1.0000
  C   C49       1.0  0.44907  0.63579  0.57335  1.0000
  C   C50       1.0  0.44909  0.63575  0.93383  1.0000
  C   C51       1.0  0.37857  0.74372  0.93385  1.0000
  C   C52       1.0  0.30012  0.79772  0.99996  1.0000
  C   C53       1.0  0.29218  0.74376  0.06606  1.0000
  C   C54       1.0  0.36270  0.63580  0.06605  1.0000
  H   H1        1.0  0.15353  0.25583  0.21962  1.0000
  N   N1        1.0  0.35412  0.57762  0.13734  1.0000
  H   H2        1.0  0.32296  0.53286  0.10267  1.0000
  H   H3        1.0  0.41072  0.50109  0.12729  1.0000
  N   N2        1.0  0.19028  0.42115  0.14638  1.0000
  H   H4        1.0  0.21270  0.43824  0.09105  1.0000
  H   H5        1.0  0.12814  0.49121  0.18215  1.0000
  H   H6        1.0  0.32107  0.00106  0.09238  1.0000
  H   H7        1.0  0.08980  0.46910  0.22066  1.0000
  H   H8        1.0  0.24270  0.88563  0.99996  1.0000
  N   N3        1.0  0.12063  0.67918  0.86241  1.0000
  H   H9        1.0  0.09330  0.66040  0.79589  1.0000
  H   H10       1.0  0.09331  0.78752  0.92312  1.0000
  N   N4        1.0  0.53371  0.57754  0.86254  1.0000
  H   H11       1.0  0.56491  0.46918  0.79601  1.0000
  H   H12       1.0  0.52796  0.62822  0.82076  1.0000
  N   N5        1.0  0.94109  0.67920  0.41329  1.0000
  H   H13       1.0  0.94679  0.62862  0.32084  1.0000
  H   H14       1.0  0.90995  0.66041  0.45518  1.0000
  H   H15       1.0  0.32122  0.00105  0.78020  1.0000
  H   H16       1.0  0.22829  0.78774  0.11988  1.0000
  N   N6        1.0  0.25076  0.34265  0.21415  1.0000
  H   H17       1.0  0.25081  0.38020  0.16219  1.0000
  H   H18       1.0  0.30161  0.31670  0.24016  1.0000
  N   N7        1.0  0.12060  0.67921  0.68809  1.0000
  H   H19       1.0  0.18100  0.62864  0.67938  1.0000
  H   H20       1.0  0.09322  0.78757  0.73576  1.0000
  H   H21       1.0  0.38505  0.78764  0.88001  1.0000
  H   H22       1.0  0.24647  0.46915  0.46055  1.0000
  H   H23       1.0  0.27871  0.87338  0.87245  1.0000
  H   H24       1.0  0.35625  0.59182  0.34339  1.0000
  H   H25       1.0  0.24648  0.46908  0.87990  1.0000
  H   H26       1.0  0.15357  0.25583  0.90760  1.0000
  N   N8        1.0  0.22400  0.91416  0.78559  1.0000
  H   H27       1.0  0.22396  0.00373  0.83755  1.0000
  H   H28       1.0  0.17315  0.94003  0.75957  1.0000
  N   N9        1.0  0.94105  0.67926  0.13722  1.0000
  H   H29       1.0  0.94674  0.62870  0.17910  1.0000
  H   H30       1.0  0.90991  0.78762  0.20367  1.0000
  H   H31       1.0  0.22830  0.78768  0.53919  1.0000
  N   N10       1.0  0.38706  0.80197  0.81080  1.0000
  H   H32       1.0  0.41821  0.84676  0.82093  1.0000
  H   H33       1.0  0.33044  0.87849  0.87726  1.0000
  H   H34       1.0  0.08971  0.46918  0.11976  1.0000
  N   N11       1.0  0.53367  0.57757  0.58645  1.0000
  H   H35       1.0  0.52797  0.62816  0.67890  1.0000
  H   H36       1.0  0.56481  0.46922  0.54455  1.0000
  N   N12       1.0  0.25071  0.34268  0.99984  1.0000
  H   H37       1.0  0.23377  0.31670  0.05175  1.0000
  H   H38       1.0  0.28463  0.25318  0.91028  1.0000
