data_image0
_chemical_formula_structural       VO4VO6C18HNH2NH2NH2NH2NH3NH2NH2NH2VO4VO6C18HNH2NH2NH2NH2NH3NH2NH2NH2
_chemical_formula_sum              "V4 O20 C36 H36 N16"
_cell_length_a       13.6358
_cell_length_b       11.1681
_cell_length_c       11.1022
_cell_angle_alpha    91.9865
_cell_angle_beta     108.604
_cell_angle_gamma    108.508

_space_group_name_H-M_alt    "P 1"
_space_group_IT_number       1

loop_
  _space_group_symop_operation_xyz
  'x, y, z'

loop_
  _atom_site_type_symbol
  _atom_site_label
  _atom_site_symmetry_multiplicity
  _atom_site_fract_x
  _atom_site_fract_y
  _atom_site_fract_z
  _atom_site_occupancy
  V   V1        1.0  0.44450  0.82528  0.60373  1.0000
  O   O1        1.0  0.46471  0.00838  0.61129  1.0000
  O   O2        1.0  0.45636  0.65358  0.60643  1.0000
  O   O3        1.0  0.45611  0.82796  0.43091  1.0000
  O   O4        1.0  0.46497  0.83279  0.78802  1.0000
  V   V2        1.0  0.20591  0.84718  0.62578  1.0000
  O   O5        1.0  0.30690  0.77724  0.55538  1.0000
  O   O6        1.0  0.11841  0.89523  0.67413  1.0000
  O   O7        1.0  0.30566  0.01889  0.62308  1.0000
  O   O8        1.0  0.12700  0.66408  0.61822  1.0000
  O   O9        1.0  0.12674  0.83968  0.44149  1.0000
  O   O10       1.0  0.30591  0.84450  0.79860  1.0000
  C   C1        1.0  0.03126  0.61172  0.61268  1.0000
  C   C2        1.0  0.00023  0.47135  0.61373  1.0000
  C   C3        1.0  0.39897  0.40265  0.60818  1.0000
  C   C4        1.0  0.36689  0.25757  0.60927  1.0000
  C   C5        1.0  0.03094  0.83417  0.38879  1.0000
  C   C6        1.0  0.49971  0.83522  0.24750  1.0000
  C   C7        1.0  0.45512  0.72009  0.16296  1.0000
  C   C8        1.0  0.42577  0.72110  0.03021  1.0000
  C   C9        1.0  0.48560  0.95238  0.06656  1.0000
  C   C10       1.0  0.01495  0.95137  0.19931  1.0000
  C   C11       1.0  0.43988  0.60394  0.21116  1.0000
  C   C12       1.0  0.39529  0.48880  0.12661  1.0000
  C   C13       1.0  0.36594  0.48981  0.99386  1.0000
  C   C14       1.0  0.38118  0.60596  0.94566  1.0000
  C   C15       1.0  0.39908  0.06074  0.61683  1.0000
  C   C16       1.0  0.44049  0.20111  0.61577  1.0000
  C   C17       1.0  0.39940  0.83829  0.84073  1.0000
  C   C18       1.0  0.44101  0.83724  0.98201  1.0000
  H   H1        1.0  0.46378  0.60311  0.31924  1.0000
  N   N1        1.0  0.06308  0.07554  0.29053  1.0000
  H   H2        1.0  0.01404  0.07599  0.34203  1.0000
  H   H3        1.0  0.06831  0.14922  0.23979  1.0000
  N   N2        1.0  0.31557  0.46701  0.60079  1.0000
  H   H4        1.0  0.35030  0.56153  0.60106  1.0000
  H   H5        1.0  0.29073  0.45348  0.67735  1.0000
  N   N3        1.0  0.37884  0.36353  0.17859  1.0000
  H   H6        1.0  0.40420  0.38036  0.27552  1.0000
  H   H7        1.0  0.42321  0.31750  0.15185  1.0000
  N   N4        1.0  0.25202  0.17939  0.60311  1.0000
  H   H8        1.0  0.24541  0.08684  0.60483  1.0000
  H   H9        1.0  0.19639  0.18725  0.52105  1.0000
  N   N5        1.0  0.00204  0.07765  0.01458  1.0000
  H   H10       1.0  0.47669  0.06082  0.91766  1.0000
  H   H11       1.0  0.08280  0.13226  0.05012  1.0000
  H   H12       1.0  0.32962  0.39606  0.92503  1.0000
  N   N6        1.0  0.05541  0.27930  0.62207  1.0000
  H   H13       1.0  0.09199  0.34658  0.70109  1.0000
  H   H14       1.0  0.05102  0.32196  0.54273  1.0000
  N   N7        1.0  0.08362  0.40699  0.62111  1.0000
  H   H15       1.0  0.14937  0.44496  0.70287  1.0000
  H   H16       1.0  0.10840  0.42044  0.54451  1.0000
  N   N8        1.0  0.34951  0.60706  0.80248  1.0000
  H   H17       1.0  0.26813  0.55762  0.75898  1.0000
  H   H18       1.0  0.39333  0.56622  0.76787  1.0000
  V   V3        1.0  0.94450  0.82528  0.60373  1.0000
  O   O11       1.0  0.96471  0.00838  0.61129  1.0000
  O   O12       1.0  0.95636  0.65358  0.60643  1.0000
  O   O13       1.0  0.95611  0.82796  0.43091  1.0000
  O   O14       1.0  0.96497  0.83279  0.78802  1.0000
  V   V4        1.0  0.70591  0.84718  0.62578  1.0000
  O   O15       1.0  0.80690  0.77724  0.55538  1.0000
  O   O16       1.0  0.61841  0.89523  0.67413  1.0000
  O   O17       1.0  0.80566  0.01889  0.62308  1.0000
  O   O18       1.0  0.62700  0.66408  0.61822  1.0000
  O   O19       1.0  0.62674  0.83968  0.44149  1.0000
  O   O20       1.0  0.80591  0.84450  0.79860  1.0000
  C   C19       1.0  0.53126  0.61172  0.61268  1.0000
  C   C20       1.0  0.50023  0.47135  0.61373  1.0000
  C   C21       1.0  0.89897  0.40265  0.60818  1.0000
  C   C22       1.0  0.86689  0.25757  0.60927  1.0000
  C   C23       1.0  0.53094  0.83417  0.38879  1.0000
  C   C24       1.0  0.99971  0.83522  0.24750  1.0000
  C   C25       1.0  0.95512  0.72009  0.16296  1.0000
  C   C26       1.0  0.92577  0.72110  0.03021  1.0000
  C   C27       1.0  0.98560  0.95238  0.06656  1.0000
  C   C28       1.0  0.51495  0.95137  0.19931  1.0000
  C   C29       1.0  0.93988  0.60394  0.21116  1.0000
  C   C30       1.0  0.89529  0.48880  0.12661  1.0000
  C   C31       1.0  0.86594  0.48981  0.99386  1.0000
  C   C32       1.0  0.88118  0.60596  0.94566  1.0000
  C   C33       1.0  0.89908  0.06074  0.61683  1.0000
  C   C34       1.0  0.94049  0.20111  0.61577  1.0000
  C   C35       1.0  0.89940  0.83829  0.84073  1.0000
  C   C36       1.0  0.94101  0.83724  0.98201  1.0000
  H   H19       1.0  0.96378  0.60311  0.31924  1.0000
  N   N9        1.0  0.56308  0.07554  0.29053  1.0000
  H   H20       1.0  0.51404  0.07599  0.34203  1.0000
  H   H21       1.0  0.56831  0.14922  0.23979  1.0000
  N   N10       1.0  0.81557  0.46701  0.60079  1.0000
  H   H22       1.0  0.85030  0.56153  0.60106  1.0000
  H   H23       1.0  0.79073  0.45348  0.67735  1.0000
  N   N11       1.0  0.87884  0.36353  0.17859  1.0000
  H   H24       1.0  0.90420  0.38036  0.27552  1.0000
  H   H25       1.0  0.92321  0.31750  0.15185  1.0000
  N   N12       1.0  0.75202  0.17939  0.60311  1.0000
  H   H26       1.0  0.74541  0.08684  0.60483  1.0000
  H   H27       1.0  0.69639  0.18725  0.52105  1.0000
  N   N13       1.0  0.50204  0.07765  0.01458  1.0000
  H   H28       1.0  0.97669  0.06082  0.91766  1.0000
  H   H29       1.0  0.58280  0.13226  0.05012  1.0000
  H   H30       1.0  0.82962  0.39606  0.92503  1.0000
  N   N14       1.0  0.55541  0.27930  0.62207  1.0000
  H   H31       1.0  0.59199  0.34658  0.70109  1.0000
  H   H32       1.0  0.55102  0.32196  0.54273  1.0000
  N   N15       1.0  0.58362  0.40699  0.62111  1.0000
  H   H33       1.0  0.64937  0.44496  0.70287  1.0000
  H   H34       1.0  0.60840  0.42044  0.54451  1.0000
  N   N16       1.0  0.84951  0.60706  0.80248  1.0000
  H   H35       1.0  0.76813  0.55762  0.75898  1.0000
  H   H36       1.0  0.89333  0.56622  0.76787  1.0000
