data_image0
_chemical_formula_structural       ZrO12Zr5O20C98HOHOHOH2OHOH2OH4OHOHOH6OH3OH4OHOHOHOH2OH3OH2OH5OH4OHOHOH6OH2OH2OHOHOH4
_chemical_formula_sum              "Zr6 O59 C98 H64"
_cell_length_a       20.9193
_cell_length_b       23.1964
_cell_length_c       23.1964
_cell_angle_alpha    60.0025
_cell_angle_beta     86.8459
_cell_angle_gamma    58.2137

_space_group_name_H-M_alt    "P 1"
_space_group_IT_number       1

loop_
  _space_group_symop_operation_xyz
  'x, y, z'

loop_
  _atom_site_type_symbol
  _atom_site_label
  _atom_site_symmetry_multiplicity
  _atom_site_fract_x
  _atom_site_fract_y
  _atom_site_fract_z
  _atom_site_occupancy
  Zr  Zr1       1.0  0.61677  0.63100  0.89375  1.0000
  O   O1        1.0  0.51454  0.75127  0.80678  1.0000
  O   O2        1.0  0.64810  0.51074  0.92041  1.0000
  O   O3        1.0  0.64810  0.63100  0.80015  1.0000
  O   O4        1.0  0.51455  0.63100  0.02192  1.0000
  O   O5        1.0  0.75346  0.63100  0.79492  1.0000
  O   O6        1.0  0.51454  0.63100  0.92705  1.0000
  O   O7        1.0  0.75346  0.41587  0.01005  1.0000
  O   O8        1.0  0.51455  0.84613  0.80679  1.0000
  O   O9        1.0  0.74010  0.56020  0.92788  1.0000
  O   O10       1.0  0.66147  0.56020  0.00259  1.0000
  O   O11       1.0  0.66147  0.70180  0.86099  1.0000
  O   O12       1.0  0.58285  0.70180  0.93569  1.0000
  Zr  Zr2       1.0  0.78481  0.63100  0.03672  1.0000
  Zr  Zr3       1.0  0.78480  0.63100  0.88541  1.0000
  Zr  Zr4       1.0  0.61677  0.63100  0.04506  1.0000
  Zr  Zr5       1.0  0.61677  0.78230  0.89376  1.0000
  Zr  Zr6       1.0  0.78480  0.47970  0.03671  1.0000
  O   O13       1.0  0.75347  0.75127  0.01006  1.0000
  O   O14       1.0  0.75346  0.75127  0.79492  1.0000
  O   O15       1.0  0.51455  0.75127  0.02192  1.0000
  O   O16       1.0  0.88703  0.51074  0.12369  1.0000
  O   O17       1.0  0.88702  0.51074  0.90855  1.0000
  O   O18       1.0  0.64811  0.51074  0.13555  1.0000
  O   O19       1.0  0.88703  0.63100  0.90856  1.0000
  O   O20       1.0  0.75347  0.63100  0.13033  1.0000
  O   O21       1.0  0.64811  0.63100  0.13556  1.0000
  O   O22       1.0  0.88703  0.63100  0.00343  1.0000
  O   O23       1.0  0.64811  0.84613  0.80016  1.0000
  O   O24       1.0  0.75346  0.41587  0.13032  1.0000
  O   O25       1.0  0.88703  0.41587  0.12369  1.0000
  O   O26       1.0  0.88702  0.41587  0.00342  1.0000
  O   O27       1.0  0.51455  0.84613  0.92706  1.0000
  O   O28       1.0  0.64811  0.84613  0.92043  1.0000
  O   O29       1.0  0.74010  0.56020  0.06948  1.0000
  O   O30       1.0  0.81873  0.56020  0.99478  1.0000
  O   O31       1.0  0.74010  0.70180  0.92789  1.0000
  O   O32       1.0  0.66148  0.70180  0.00259  1.0000
  C   C1        1.0  0.70078  0.44174  0.96523  1.0000
  C   C2        1.0  0.70078  0.37751  0.96523  1.0000
  C   C3        1.0  0.74182  0.34734  0.92623  1.0000
  C   C4        1.0  0.74182  0.28698  0.92623  1.0000
  C   C5        1.0  0.70078  0.25680  0.96523  1.0000
  C   C6        1.0  0.65974  0.28698  0.00423  1.0000
  C   C7        1.0  0.65974  0.34733  0.00423  1.0000
  C   C8        1.0  0.63203  0.19477  0.96337  1.0000
  C   C9        1.0  0.63203  0.13442  0.96336  1.0000
  C   C10       1.0  0.70078  0.07065  0.96523  1.0000
  C   C11       1.0  0.76953  0.06724  0.96710  1.0000
  C   C12       1.0  0.76953  0.12759  0.96710  1.0000
  C   C13       1.0  0.70078  0.19136  0.96523  1.0000
  C   C14       1.0  0.74183  0.97503  0.92624  1.0000
  C   C15       1.0  0.74184  0.91466  0.92625  1.0000
  C   C16       1.0  0.65975  0.91467  0.00425  1.0000
  C   C17       1.0  0.65975  0.97503  0.00424  1.0000
  C   C18       1.0  0.70078  0.00521  0.96523  1.0000
  C   C19       1.0  0.49061  0.63100  0.97567  1.0000
  C   C20       1.0  0.41927  0.63100  0.97921  1.0000
  C   C21       1.0  0.38576  0.63100  0.92861  1.0000
  C   C22       1.0  0.31873  0.63100  0.93194  1.0000
  C   C23       1.0  0.28522  0.63100  0.98587  1.0000
  C   C24       1.0  0.31874  0.63099  0.03648  1.0000
  C   C25       1.0  0.38577  0.63099  0.03315  1.0000
  C   C26       1.0  0.08285  0.63099  0.99854  1.0000
  C   C27       1.0  0.01582  0.63100  0.00186  1.0000
  C   C28       1.0  0.01581  0.63100  0.89733  1.0000
  C   C29       1.0  0.08284  0.63101  0.89400  1.0000
  C   C30       1.0  0.11636  0.63100  0.94461  1.0000
  C   C31       1.0  0.21671  0.63099  0.98928  1.0000
  C   C32       1.0  0.18487  0.63099  0.94121  1.0000
  C   C33       1.0  0.91097  0.63100  0.95480  1.0000
  C   C34       1.0  0.98230  0.63100  0.95126  1.0000
  C   C35       1.0  0.70078  0.63100  0.77597  1.0000
  C   C36       1.0  0.70078  0.63100  0.71174  1.0000
  C   C37       1.0  0.70079  0.82026  0.96524  1.0000
  C   C38       1.0  0.70079  0.88449  0.96525  1.0000
  C   C39       1.0  0.64275  0.63101  0.25178  1.0000
  C   C40       1.0  0.64275  0.63100  0.31214  1.0000
  C   C41       1.0  0.70079  0.63101  0.33944  1.0000
  C   C42       1.0  0.75885  0.63099  0.30639  1.0000
  C   C43       1.0  0.75885  0.63099  0.24603  1.0000
  C   C44       1.0  0.71888  0.67851  0.41041  1.0000
  C   C45       1.0  0.71887  0.67852  0.47076  1.0000
  C   C46       1.0  0.70078  0.63101  0.52559  1.0000
  C   C47       1.0  0.68269  0.58350  0.52006  1.0000
  C   C48       1.0  0.68269  0.58350  0.45970  1.0000
  C   C49       1.0  0.70079  0.63101  0.40488  1.0000
  C   C50       1.0  0.64273  0.63101  0.62408  1.0000
  C   C51       1.0  0.64274  0.63100  0.68444  1.0000
  C   C52       1.0  0.75883  0.63100  0.67868  1.0000
  C   C53       1.0  0.75883  0.63100  0.61833  1.0000
  C   C54       1.0  0.70078  0.63101  0.59103  1.0000
  C   C55       1.0  0.70079  0.63100  0.15450  1.0000
  C   C56       1.0  0.70079  0.63100  0.21873  1.0000
  C   C57       1.0  0.91096  0.44174  0.95479  1.0000
  C   C58       1.0  0.98230  0.37751  0.95125  1.0000
  C   C59       1.0  0.70079  0.44174  0.15449  1.0000
  C   C60       1.0  0.70079  0.37751  0.21872  1.0000
  C   C61       1.0  0.91097  0.44174  0.14406  1.0000
  C   C62       1.0  0.98230  0.37751  0.20475  1.0000
  C   C63       1.0  0.49061  0.82026  0.78642  1.0000
  C   C64       1.0  0.41927  0.88449  0.72573  1.0000
  C   C65       1.0  0.49061  0.82026  0.97568  1.0000
  C   C66       1.0  0.41928  0.88449  0.97922  1.0000
  C   C67       1.0  0.70079  0.82026  0.77598  1.0000
  C   C68       1.0  0.70079  0.88449  0.71175  1.0000
  C   C69       1.0  0.97475  0.34735  0.91466  1.0000
  C   C70       1.0  0.04177  0.28700  0.91132  1.0000
  C   C71       1.0  0.11633  0.25682  0.94457  1.0000
  C   C72       1.0  0.12387  0.28699  0.98116  1.0000
  C   C73       1.0  0.05686  0.34734  0.98450  1.0000
  C   C74       1.0  0.74183  0.34735  0.28381  1.0000
  C   C75       1.0  0.74183  0.28700  0.34417  1.0000
  C   C76       1.0  0.70079  0.25682  0.33944  1.0000
  C   C77       1.0  0.65974  0.28699  0.27434  1.0000
  C   C78       1.0  0.65973  0.34734  0.21398  1.0000
  C   C79       1.0  0.05685  0.34735  0.19425  1.0000
  C   C80       1.0  0.12388  0.28701  0.25127  1.0000
  C   C81       1.0  0.11637  0.25682  0.31878  1.0000
  C   C82       1.0  0.04181  0.28699  0.32928  1.0000
  C   C83       1.0  0.97478  0.34734  0.27226  1.0000
  C   C84       1.0  0.34472  0.91466  0.73622  1.0000
  C   C85       1.0  0.27769  0.97502  0.67920  1.0000
  C   C86       1.0  0.28521  0.00521  0.61169  1.0000
  C   C87       1.0  0.35976  0.97503  0.60120  1.0000
  C   C88       1.0  0.42679  0.91468  0.65821  1.0000
  C   C89       1.0  0.42682  0.91466  0.01581  1.0000
  C   C90       1.0  0.35981  0.97502  0.01913  1.0000
  C   C91       1.0  0.28524  0.00520  0.98588  1.0000
  C   C92       1.0  0.27770  0.97503  0.94929  1.0000
  C   C93       1.0  0.34472  0.91468  0.94596  1.0000
  C   C94       1.0  0.74184  0.91465  0.71651  1.0000
  C   C95       1.0  0.74185  0.97500  0.65616  1.0000
  C   C96       1.0  0.70081  0.00518  0.59106  1.0000
  C   C97       1.0  0.65976  0.97501  0.58630  1.0000
  C   C98       1.0  0.65975  0.91466  0.64665  1.0000
  H   H1        1.0  0.77523  0.37191  0.89447  1.0000
  O   O33       1.0  0.20428  0.25450  0.23992  1.0000
  H   H2        1.0  0.23677  0.26611  0.26402  1.0000
  O   O34       1.0  0.18861  0.19173  0.94097  1.0000
  H   H3        1.0  0.18856  0.13674  0.96409  1.0000
  O   O35       1.0  0.78612  0.25446  0.41438  1.0000
  H   H4        1.0  0.81467  0.28557  0.40752  1.0000
  H   H5        1.0  0.21699  0.99958  0.68776  1.0000
  O   O36       1.0  0.50720  0.88216  0.64688  1.0000
  H   H6        1.0  0.55255  0.83513  0.69787  1.0000
  O   O37       1.0  0.66318  0.53226  0.57919  1.0000
  H   H7        1.0  0.70591  0.46714  0.59803  1.0000
  H   H8        1.0  0.17095  0.20768  0.36521  1.0000
  O   O38       1.0  0.89438  0.37985  0.28359  1.0000
  H   H9        1.0  0.86187  0.44643  0.25949  1.0000
  H   H10       1.0  0.03570  0.26241  0.38425  1.0000
  H   H11       1.0  0.77525  0.99960  0.89448  1.0000
  H   H12       1.0  0.80610  0.63100  0.59142  1.0000
  O   O39       1.0  0.21291  0.07032  0.55019  1.0000
  H   H13       1.0  0.15981  0.08622  0.56884  1.0000
  O   O40       1.0  0.33661  0.88211  0.80903  1.0000
  H   H14       1.0  0.27350  0.91325  0.80674  1.0000
  O   O41       1.0  0.21296  0.07028  0.98950  1.0000
  H   H15       1.0  0.23074  0.08617  0.02054  1.0000
  H   H16       1.0  0.48753  0.89008  0.04289  1.0000
  H   H17       1.0  0.70083  0.05432  0.54192  1.0000
  H   H18       1.0  0.36587  0.99962  0.54622  1.0000
  H   H19       1.0  0.06299  0.37192  0.13928  1.0000
  H   H20       1.0  0.59546  0.63102  0.60186  1.0000
  O   O42       1.0  0.36795  0.00754  0.05861  1.0000
  H   H21       1.0  0.43106  0.97640  0.08118  1.0000
  H   H22       1.0  0.21698  0.99962  0.92222  1.0000
  H   H23       1.0  0.70079  0.20768  0.38859  1.0000
  O   O43       1.0  0.61547  0.25444  0.04629  1.0000
  H   H24       1.0  0.62235  0.20741  0.03973  1.0000
  H   H25       1.0  0.33856  0.89011  0.91617  1.0000
  H   H26       1.0  0.77526  0.89009  0.76951  1.0000
  H   H27       1.0  0.77528  0.99956  0.66004  1.0000
  O   O44       1.0  0.61547  0.88213  0.64151  1.0000
  H   H28       1.0  0.62236  0.83509  0.69440  1.0000
  O   O45       1.0  0.03362  0.25447  0.87185  1.0000
  H   H29       1.0  0.06217  0.26607  0.82957  1.0000
  O   O46       1.0  0.73838  0.72976  0.35127  1.0000
  H   H30       1.0  0.79845  0.71022  0.36964  1.0000
  O   O47       1.0  0.61549  0.00758  0.51608  1.0000
  H   H31       1.0  0.62239  0.05462  0.47493  1.0000
  H   H32       1.0  0.77524  0.26241  0.89448  1.0000
  O   O48       1.0  0.20430  0.25443  0.01702  1.0000
  H   H33       1.0  0.23678  0.18786  0.05625  1.0000
  H   H34       1.0  0.98852  0.63101  0.85612  1.0000
  H   H35       1.0  0.82551  0.12481  0.96861  1.0000
  O   O49       1.0  0.84369  0.99846  0.96911  1.0000
  H   H36       1.0  0.89019  0.96401  0.01703  1.0000
  H   H37       1.0  0.62632  0.26241  0.27050  1.0000
  O   O50       1.0  0.06500  0.37986  0.02398  1.0000
  H   H38       1.0  0.12811  0.34872  0.04654  1.0000
  H   H39       1.0  0.77526  0.89009  0.89450  1.0000
  H   H40       1.0  0.62632  0.37189  0.16099  1.0000
  H   H41       1.0  0.77525  0.37192  0.28768  1.0000
  H   H42       1.0  0.59547  0.63100  0.71135  1.0000
  O   O51       1.0  0.58013  0.63102  0.22234  1.0000
  H   H43       1.0  0.58988  0.63102  0.17482  1.0000
  H   H44       1.0  0.11013  0.63099  0.03975  1.0000
  H   H45       1.0  0.62633  0.89010  0.03600  1.0000
  H   H46       1.0  0.57605  0.13721  0.96184  1.0000
  O   O52       1.0  0.61548  0.00758  0.04630  1.0000
  H   H47       1.0  0.55240  0.03508  0.02807  1.0000
  O   O53       1.0  0.55788  0.26358  0.96133  1.0000
  H   H48       1.0  0.53841  0.23819  0.00745  1.0000
  O   O54       1.0  0.61547  0.37989  0.04629  1.0000
  H   H49       1.0  0.58693  0.34877  0.07340  1.0000
  H   H50       1.0  0.73360  0.71720  0.47525  1.0000
  H   H51       1.0  0.80611  0.63099  0.32862  1.0000
  H   H52       1.0  0.41303  0.63101  0.88469  1.0000
  H   H53       1.0  0.29145  0.63100  0.89074  1.0000
  H   H54       1.0  0.80612  0.63098  0.21912  1.0000
  O   O55       1.0  0.11898  0.63101  0.83583  1.0000
  H   H55       1.0  0.08442  0.63100  0.80120  1.0000
  H   H56       1.0  0.98854  0.63100  0.04578  1.0000
  O   O56       1.0  0.28260  0.63099  0.09465  1.0000
  H   H57       1.0  0.23036  0.63100  0.08846  1.0000
  H   H58       1.0  0.66796  0.54482  0.45521  1.0000
  O   O57       1.0  0.42192  0.63099  0.08773  1.0000
  H   H59       1.0  0.37838  0.68625  0.08732  1.0000
  O   O58       1.0  0.22101  0.63100  0.88304  1.0000
  H   H60       1.0  0.23884  0.57574  0.88472  1.0000
  O   O59       1.0  0.18057  0.63100  0.04744  1.0000
  H   H61       1.0  0.11934  0.68627  0.02535  1.0000
  H   H62       1.0  0.59548  0.63101  0.33905  1.0000
  H   H63       1.0  0.91404  0.37192  0.88757  1.0000
  H   H64       1.0  0.80610  0.63099  0.70091  1.0000
