data_image0
_chemical_formula_structural       Zn4O13C42H2N2HN2HN2HN2HN2HN2HN2H2N2HN2H3N2HN2HN2H2N2HN2H3N2HN2HN2HN2H2N2H
_chemical_formula_sum              "Zn4 O13 C42 H28 N38"
_cell_length_a       19.8054
_cell_length_b       19.8054
_cell_length_c       12.6453
_cell_angle_alpha    89.9849
_cell_angle_beta     90.0254
_cell_angle_gamma    89.9724

_space_group_name_H-M_alt    "P 1"
_space_group_IT_number       1

loop_
  _space_group_symop_operation_xyz
  'x, y, z'

loop_
  _atom_site_type_symbol
  _atom_site_label
  _atom_site_symmetry_multiplicity
  _atom_site_fract_x
  _atom_site_fract_y
  _atom_site_fract_z
  _atom_site_occupancy
  Zn  Zn1       1.0  0.73049  0.61730  0.62059  1.0000
  Zn  Zn2       1.0  0.61731  0.73049  0.62047  1.0000
  Zn  Zn3       1.0  0.73048  0.73048  0.44333  1.0000
  Zn  Zn4       1.0  0.61734  0.61735  0.44326  1.0000
  O   O1        1.0  0.67390  0.67390  0.53191  1.0000
  O   O2        1.0  0.71547  0.63231  0.76892  1.0000
  O   O3        1.0  0.63230  0.82521  0.59695  1.0000
  O   O4        1.0  0.82520  0.71544  0.46692  1.0000
  O   O5        1.0  0.63231  0.71547  0.76883  1.0000
  O   O6        1.0  0.82521  0.63229  0.59715  1.0000
  O   O7        1.0  0.71545  0.82520  0.46680  1.0000
  O   O8        1.0  0.71548  0.71548  0.29497  1.0000
  O   O9        1.0  0.63237  0.52262  0.46680  1.0000
  O   O10       1.0  0.63236  0.63236  0.29492  1.0000
  O   O11       1.0  0.71550  0.52259  0.59709  1.0000
  O   O12       1.0  0.52259  0.71551  0.59688  1.0000
  O   O13       1.0  0.52262  0.63238  0.46669  1.0000
  C   C1        1.0  0.49805  0.67394  0.53179  1.0000
  C   C2        1.0  0.42282  0.67393  0.53184  1.0000
  C   C3        1.0  0.67394  0.49736  0.53195  1.0000
  C   C4        1.0  0.67396  0.42213  0.53197  1.0000
  C   C5        1.0  0.67392  0.67392  0.25648  1.0000
  C   C6        1.0  0.67391  0.67392  0.13865  1.0000
  C   C7        1.0  0.38748  0.71717  0.59969  1.0000
  C   C8        1.0  0.31679  0.71715  0.59974  1.0000
  C   C9        1.0  0.28144  0.67390  0.53192  1.0000
  C   C10       1.0  0.31678  0.63066  0.46406  1.0000
  C   C11       1.0  0.38747  0.63067  0.46402  1.0000
  C   C12       1.0  0.03171  0.63061  0.46422  1.0000
  C   C13       1.0  0.96101  0.63060  0.46426  1.0000
  C   C14       1.0  0.96103  0.71709  0.59993  1.0000
  C   C15       1.0  0.03172  0.71710  0.59990  1.0000
  C   C16       1.0  0.06705  0.67386  0.53204  1.0000
  C   C17       1.0  0.14370  0.67387  0.53199  1.0000
  C   C18       1.0  0.20479  0.67389  0.53196  1.0000
  C   C19       1.0  0.85045  0.67386  0.53206  1.0000
  C   C20       1.0  0.92568  0.67384  0.53212  1.0000
  C   C21       1.0  0.71736  0.96032  0.59994  1.0000
  C   C22       1.0  0.71734  0.03101  0.59992  1.0000
  C   C23       1.0  0.67405  0.06637  0.53208  1.0000
  C   C24       1.0  0.63077  0.03103  0.46426  1.0000
  C   C25       1.0  0.63079  0.96035  0.46428  1.0000
  C   C26       1.0  0.63070  0.31611  0.46416  1.0000
  C   C27       1.0  0.63069  0.38680  0.46414  1.0000
  C   C28       1.0  0.71725  0.38677  0.59980  1.0000
  C   C29       1.0  0.71727  0.31608  0.59983  1.0000
  C   C30       1.0  0.67399  0.28075  0.53201  1.0000
  C   C31       1.0  0.67401  0.20411  0.53203  1.0000
  C   C32       1.0  0.67403  0.14302  0.53205  1.0000
  C   C33       1.0  0.67392  0.84976  0.53193  1.0000
  C   C34       1.0  0.67409  0.92499  0.53212  1.0000
  C   C35       1.0  0.72644  0.72592  0.97108  1.0000
  C   C36       1.0  0.72631  0.72615  0.09364  1.0000
  C   C37       1.0  0.60261  0.69341  0.09412  1.0000
  C   C38       1.0  0.60290  0.69376  0.97152  1.0000
  C   C39       1.0  0.69200  0.60222  0.97149  1.0000
  C   C40       1.0  0.69359  0.60262  0.09410  1.0000
  C   C41       1.0  0.67389  0.67388  0.80841  1.0000
  C   C42       1.0  0.67388  0.67388  0.92624  1.0000
  H   H1        1.0  0.28803  0.75236  0.65500  1.0000
  H   H2        1.0  0.59555  0.93158  0.40905  1.0000
  N   N1        1.0  0.42360  0.76134  0.66897  1.0000
  N   N2        1.0  0.48671  0.76135  0.66893  1.0000
  H   H3        1.0  0.51222  0.79255  0.71786  1.0000
  N   N3        1.0  0.55210  0.64830  0.93428  1.0000
  N   N4        1.0  0.54326  0.64047  0.83718  1.0000
  H   H4        1.0  0.50738  0.60837  0.81088  1.0000
  N   N5        1.0  0.58650  0.28001  0.39491  1.0000
  N   N6        1.0  0.54338  0.24057  0.43220  1.0000
  H   H5        1.0  0.51216  0.21507  0.38330  1.0000
  N   N7        1.0  0.06782  0.76129  0.66917  1.0000
  N   N8        1.0  0.03626  0.79990  0.72975  1.0000
  H   H6        1.0  0.06176  0.83111  0.77869  1.0000
  N   N9        1.0  0.55217  0.64735  0.13069  1.0000
  N   N10       1.0  0.56825  0.59953  0.19013  1.0000
  H   H7        1.0  0.53263  0.56699  0.21596  1.0000
  N   N11       1.0  0.92493  0.76126  0.66924  1.0000
  N   N12       1.0  0.86182  0.76125  0.66927  1.0000
  H   H8        1.0  0.83632  0.79245  0.71822  1.0000
  N   N13       1.0  0.79264  0.71084  0.13141  1.0000
  N   N14       1.0  0.83936  0.69991  0.06722  1.0000
  H   H9        1.0  0.88621  0.68911  0.09388  1.0000
  H   H10       1.0  0.93223  0.59537  0.40903  1.0000
  N   N15       1.0  0.75942  0.58418  0.13059  1.0000
  N   N16       1.0  0.80560  0.57301  0.06556  1.0000
  H   H11       1.0  0.85210  0.55998  0.09134  1.0000
  N   N17       1.0  0.06778  0.58643  0.39490  1.0000
  N   N18       1.0  0.03621  0.54782  0.33435  1.0000
  H   H12       1.0  0.06169  0.51661  0.28539  1.0000
  H   H13       1.0  0.75249  0.41554  0.65503  1.0000
  H   H14       1.0  0.28799  0.59544  0.40884  1.0000
  N   N19       1.0  0.42355  0.58649  0.39470  1.0000
  N   N20       1.0  0.39198  0.54787  0.33416  1.0000
  H   H15       1.0  0.41747  0.51667  0.28520  1.0000
  N   N21       1.0  0.76150  0.27998  0.66912  1.0000
  N   N22       1.0  0.80013  0.31153  0.72967  1.0000
  H   H16       1.0  0.83137  0.28603  0.77862  1.0000
  N   N23       1.0  0.71127  0.79275  0.13039  1.0000
  N   N24       1.0  0.66045  0.80279  0.18683  1.0000
  H   H17       1.0  0.64982  0.84983  0.21279  1.0000
  H   H18       1.0  0.58753  0.74615  0.94288  1.0000
  N   N25       1.0  0.76160  0.92422  0.66923  1.0000
  N   N26       1.0  0.80023  0.95577  0.72978  1.0000
  H   H19       1.0  0.83147  0.93028  0.77872  1.0000
  N   N27       1.0  0.76155  0.06709  0.66921  1.0000
  N   N28       1.0  0.80020  0.03551  0.72978  1.0000
  H   H20       1.0  0.83141  0.06099  0.77872  1.0000
  H   H21       1.0  0.65810  0.56177  0.12474  1.0000
  H   H22       1.0  0.59544  0.41559  0.40889  1.0000
  N   N29       1.0  0.58299  0.75842  0.13257  1.0000
  N   N30       1.0  0.53043  0.76463  0.18639  1.0000
  H   H23       1.0  0.51657  0.81054  0.21355  1.0000
  N   N31       1.0  0.58655  0.06716  0.39497  1.0000
  N   N32       1.0  0.58654  0.13027  0.39496  1.0000
  H   H24       1.0  0.55530  0.15579  0.34603  1.0000
  N   N33       1.0  0.79297  0.71075  0.93412  1.0000
  N   N34       1.0  0.80242  0.66142  0.87429  1.0000
  H   H25       1.0  0.84940  0.65071  0.84818  1.0000
  N   N35       1.0  0.71159  0.79213  0.93237  1.0000
  N   N36       1.0  0.66246  0.80116  0.87191  1.0000
  H   H26       1.0  0.65197  0.84792  0.84457  1.0000
  H   H27       1.0  0.65372  0.56345  0.94249  1.0000
  N   N37       1.0  0.75608  0.57997  0.93275  1.0000
  N   N38       1.0  0.76018  0.52673  0.88008  1.0000
  H   H28       1.0  0.80544  0.51102  0.85272  1.0000
