data_image0
_chemical_formula_structural       VO4VO6C18H4CH3CH3VO4VO6C18H4CH3CH3
_chemical_formula_sum              "V4 O20 C40 H20"
_cell_length_a       13.6358
_cell_length_b       9.58286
_cell_length_c       16.2557
_cell_angle_alpha    93.0829
_cell_angle_beta     103.489
_cell_angle_gamma    111.207

_space_group_name_H-M_alt    "P 1"
_space_group_IT_number       1

loop_
  _space_group_symop_operation_xyz
  'x, y, z'

loop_
  _atom_site_type_symbol
  _atom_site_label
  _atom_site_symmetry_multiplicity
  _atom_site_fract_x
  _atom_site_fract_y
  _atom_site_fract_z
  _atom_site_occupancy
  V   V1        1.0  0.46658  0.79174  0.73628  1.0000
  O   O1        1.0  0.49375  0.00876  0.74114  1.0000
  O   O2        1.0  0.47119  0.58824  0.73824  1.0000
  O   O3        1.0  0.49105  0.79439  0.62120  1.0000
  O   O4        1.0  0.47375  0.80119  0.85900  1.0000
  V   V2        1.0  0.22726  0.81776  0.75094  1.0000
  O   O5        1.0  0.33057  0.73465  0.70413  1.0000
  O   O6        1.0  0.13817  0.87484  0.78310  1.0000
  O   O7        1.0  0.33425  0.02125  0.74899  1.0000
  O   O8        1.0  0.14139  0.60073  0.74608  1.0000
  O   O9        1.0  0.16139  0.80831  0.62823  1.0000
  O   O10       1.0  0.31439  0.81510  0.86603  1.0000
  C   C1        1.0  0.04392  0.53865  0.74244  1.0000
  C   C2        1.0  0.00705  0.37229  0.74328  1.0000
  C   C3        1.0  0.06925  0.80162  0.59314  1.0000
  C   C4        1.0  0.04849  0.80245  0.49906  1.0000
  C   C5        1.0  0.09416  0.81232  0.27624  1.0000
  C   C6        1.0  0.00368  0.68490  0.20685  1.0000
  C   C7        1.0  0.01045  0.80400  0.32681  1.0000
  C   C8        1.0  0.06393  0.93288  0.22855  1.0000
  C   C9        1.0  0.47371  0.80550  0.16043  1.0000
  C   C10       1.0  0.42021  0.67646  0.25866  1.0000
  C   C11       1.0  0.48050  0.92455  0.28038  1.0000
  C   C12       1.0  0.38994  0.79709  0.21101  1.0000
  C   C13       1.0  0.03161  0.80313  0.42266  1.0000
  C   C14       1.0  0.45253  0.80636  0.06458  1.0000
  C   C15       1.0  0.42985  0.07083  0.74479  1.0000
  C   C16       1.0  0.47710  0.23719  0.74395  1.0000
  C   C17       1.0  0.40452  0.80787  0.89409  1.0000
  C   C18       1.0  0.43566  0.80705  0.98817  1.0000
  H   H1        1.0  0.18064  0.81859  0.30471  1.0000
  H   H2        1.0  0.12449  0.04121  0.21486  1.0000
  H   H3        1.0  0.30339  0.79062  0.18267  1.0000
  H   H4        1.0  0.35965  0.56798  0.27221  1.0000
  C   C19       1.0  0.01661  0.54804  0.16360  1.0000
  H   H5        1.0  0.08901  0.55357  0.18605  1.0000
  H   H6        1.0  0.46625  0.45707  0.17444  1.0000
  H   H7        1.0  0.00257  0.54906  0.10363  1.0000
  C   C20       1.0  0.46763  0.06143  0.32366  1.0000
  H   H8        1.0  0.01895  0.15242  0.31372  1.0000
  H   H9        1.0  0.39566  0.05697  0.30048  1.0000
  H   H10       1.0  0.48037  0.05935  0.38350  1.0000
  V   V3        1.0  0.96658  0.79174  0.73628  1.0000
  O   O11       1.0  0.99375  0.00876  0.74114  1.0000
  O   O12       1.0  0.97119  0.58824  0.73824  1.0000
  O   O13       1.0  0.99105  0.79439  0.62120  1.0000
  O   O14       1.0  0.97375  0.80119  0.85900  1.0000
  V   V4        1.0  0.72726  0.81776  0.75094  1.0000
  O   O15       1.0  0.83057  0.73465  0.70413  1.0000
  O   O16       1.0  0.63817  0.87484  0.78310  1.0000
  O   O17       1.0  0.83425  0.02125  0.74899  1.0000
  O   O18       1.0  0.64139  0.60073  0.74608  1.0000
  O   O19       1.0  0.66139  0.80831  0.62823  1.0000
  O   O20       1.0  0.81439  0.81510  0.86603  1.0000
  C   C21       1.0  0.54392  0.53865  0.74244  1.0000
  C   C22       1.0  0.50705  0.37229  0.74328  1.0000
  C   C23       1.0  0.56925  0.80162  0.59314  1.0000
  C   C24       1.0  0.54849  0.80245  0.49906  1.0000
  C   C25       1.0  0.59416  0.81232  0.27624  1.0000
  C   C26       1.0  0.50368  0.68490  0.20685  1.0000
  C   C27       1.0  0.51045  0.80400  0.32681  1.0000
  C   C28       1.0  0.56393  0.93288  0.22855  1.0000
  C   C29       1.0  0.97371  0.80550  0.16043  1.0000
  C   C30       1.0  0.92021  0.67646  0.25866  1.0000
  C   C31       1.0  0.98050  0.92455  0.28038  1.0000
  C   C32       1.0  0.88994  0.79709  0.21101  1.0000
  C   C33       1.0  0.53161  0.80313  0.42266  1.0000
  C   C34       1.0  0.95253  0.80636  0.06458  1.0000
  C   C35       1.0  0.92985  0.07083  0.74479  1.0000
  C   C36       1.0  0.97710  0.23719  0.74395  1.0000
  C   C37       1.0  0.90452  0.80787  0.89409  1.0000
  C   C38       1.0  0.93566  0.80705  0.98817  1.0000
  H   H11       1.0  0.68064  0.81859  0.30471  1.0000
  H   H12       1.0  0.62449  0.04121  0.21486  1.0000
  H   H13       1.0  0.80339  0.79062  0.18267  1.0000
  H   H14       1.0  0.85965  0.56798  0.27221  1.0000
  C   C39       1.0  0.51661  0.54804  0.16360  1.0000
  H   H15       1.0  0.58901  0.55357  0.18605  1.0000
  H   H16       1.0  0.96625  0.45707  0.17444  1.0000
  H   H17       1.0  0.50257  0.54906  0.10363  1.0000
  C   C40       1.0  0.96763  0.06143  0.32366  1.0000
  H   H18       1.0  0.51895  0.15242  0.31372  1.0000
  H   H19       1.0  0.89566  0.05697  0.30048  1.0000
  H   H20       1.0  0.98037  0.05935  0.38350  1.0000
