data_image0
_chemical_formula_structural       Zn4O13C46H2OC2H5OC2H6OC2H5OC2H5OC2H5OC2H5OC2H9OC2H6OC2H10
_chemical_formula_sum              "Zn4 O22 C64 H58"
_cell_length_a       16.9595
_cell_length_b       16.9595
_cell_length_c       12.7594
_cell_angle_alpha    89.9691
_cell_angle_beta     89.9782
_cell_angle_gamma    90.019

_space_group_name_H-M_alt    "P 1"
_space_group_IT_number       1

loop_
  _space_group_symop_operation_xyz
  'x, y, z'

loop_
  _atom_site_type_symbol
  _atom_site_label
  _atom_site_symmetry_multiplicity
  _atom_site_fract_x
  _atom_site_fract_y
  _atom_site_fract_z
  _atom_site_occupancy
  Zn  Zn1       1.0  0.20842  0.68534  0.40589  1.0000
  Zn  Zn2       1.0  0.20833  0.55314  0.58156  1.0000
  Zn  Zn3       1.0  0.07624  0.68531  0.58156  1.0000
  Zn  Zn4       1.0  0.07622  0.55321  0.40594  1.0000
  O   O1        1.0  0.14230  0.61925  0.49374  1.0000
  O   O2        1.0  0.31902  0.66780  0.42917  1.0000
  O   O3        1.0  0.19078  0.57063  0.72859  1.0000
  O   O4        1.0  0.09382  0.79592  0.55824  1.0000
  O   O5        1.0  0.31896  0.57067  0.55824  1.0000
  O   O6        1.0  0.19094  0.79595  0.42917  1.0000
  O   O7        1.0  0.09373  0.66773  0.72858  1.0000
  O   O8        1.0  0.96563  0.66779  0.55828  1.0000
  O   O9        1.0  0.09378  0.57078  0.25891  1.0000
  O   O10       1.0  0.96561  0.57074  0.42925  1.0000
  O   O11       1.0  0.19091  0.66786  0.25887  1.0000
  O   O12       1.0  0.19076  0.44254  0.55829  1.0000
  O   O13       1.0  0.09370  0.44259  0.42926  1.0000
  C   C1        1.0  0.93694  0.61927  0.49377  1.0000
  C   C2        1.0  0.84908  0.61926  0.49376  1.0000
  C   C3        1.0  0.80779  0.66986  0.56084  1.0000
  C   C4        1.0  0.80782  0.56865  0.42668  1.0000
  C   C5        1.0  0.72527  0.56864  0.42666  1.0000
  C   C6        1.0  0.68398  0.61924  0.49373  1.0000
  C   C7        1.0  0.72524  0.66985  0.56082  1.0000
  C   C8        1.0  0.68401  0.51803  0.35956  1.0000
  C   C9        1.0  0.60145  0.51802  0.35955  1.0000
  C   C10       1.0  0.56017  0.56862  0.42663  1.0000
  C   C11       1.0  0.60143  0.61924  0.49372  1.0000
  C   C12       1.0  0.56014  0.66984  0.56079  1.0000
  C   C13       1.0  0.60140  0.72045  0.62789  1.0000
  C   C14       1.0  0.68395  0.72045  0.62790  1.0000
  C   C15       1.0  0.47762  0.56862  0.42661  1.0000
  C   C16       1.0  0.47759  0.66983  0.56077  1.0000
  C   C17       1.0  0.14224  0.41388  0.49376  1.0000
  C   C18       1.0  0.14228  0.32603  0.49373  1.0000
  C   C19       1.0  0.09184  0.95455  0.42656  1.0000
  C   C20       1.0  0.19299  0.95456  0.56081  1.0000
  C   C21       1.0  0.19297  0.03710  0.56082  1.0000
  C   C22       1.0  0.14237  0.07837  0.49370  1.0000
  C   C23       1.0  0.09180  0.03710  0.42657  1.0000
  C   C24       1.0  0.24353  0.07838  0.62796  1.0000
  C   C25       1.0  0.24350  0.16093  0.62797  1.0000
  C   C26       1.0  0.19291  0.20221  0.56084  1.0000
  C   C27       1.0  0.14234  0.16093  0.49371  1.0000
  C   C28       1.0  0.09175  0.20220  0.42659  1.0000
  C   C29       1.0  0.04118  0.16092  0.35945  1.0000
  C   C30       1.0  0.04121  0.07837  0.35944  1.0000
  C   C31       1.0  0.19288  0.28476  0.56085  1.0000
  C   C32       1.0  0.09172  0.28475  0.42660  1.0000
  C   C33       1.0  0.34847  0.61923  0.49370  1.0000
  C   C34       1.0  0.43633  0.61922  0.49369  1.0000
  C   C35       1.0  0.14236  0.61933  0.21970  1.0000
  C   C36       1.0  0.14238  0.61936  0.10293  1.0000
  C   C37       1.0  0.14239  0.82542  0.49370  1.0000
  C   C38       1.0  0.14243  0.91328  0.49368  1.0000
  C   C39       1.0  0.09187  0.66993  0.04806  1.0000
  C   C40       1.0  0.09189  0.66996  0.93833  1.0000
  C   C41       1.0  0.19294  0.56884  0.93836  1.0000
  C   C42       1.0  0.19291  0.56881  0.04808  1.0000
  C   C43       1.0  0.03352  0.72832  0.04804  1.0000
  C   C44       1.0  0.03355  0.72834  0.93832  1.0000
  C   C45       1.0  0.14230  0.61923  0.76670  1.0000
  C   C46       1.0  0.14243  0.61942  0.88348  1.0000
  H   H1        1.0  0.71755  0.76166  0.68253  1.0000
  H   H2        1.0  0.05067  0.92093  0.37189  1.0000
  O   O14       1.0  0.04249  0.32472  0.36136  1.0000
  C   C47       1.0  0.94220  0.31600  0.22813  1.0000
  C   C48       1.0  0.99789  0.27064  0.30198  1.0000
  H   H3        1.0  0.90614  0.27229  0.18010  1.0000
  H   H4        1.0  0.90082  0.35457  0.27637  1.0000
  H   H5        1.0  0.97847  0.35472  0.17321  1.0000
  H   H6        1.0  0.96169  0.23187  0.35693  1.0000
  H   H7        1.0  0.03927  0.23211  0.25368  1.0000
  O   O15       1.0  0.56126  0.76949  0.69315  1.0000
  C   C49       1.0  0.46795  0.78023  0.83491  1.0000
  C   C50       1.0  0.51339  0.72460  0.76107  1.0000
  H   H8        1.0  0.42923  0.74396  0.88982  1.0000
  H   H9        1.0  0.51158  0.81638  0.88294  1.0000
  H   H10       1.0  0.42937  0.82153  0.78655  1.0000
  H   H11       1.0  0.55197  0.68325  0.80935  1.0000
  H   H12       1.0  0.46971  0.68850  0.71303  1.0000
  H   H13       1.0  0.84139  0.71106  0.61547  1.0000
  O   O16       1.0  0.84804  0.51952  0.36162  1.0000
  C   C51       1.0  0.97523  0.47471  0.30214  1.0000
  C   C52       1.0  0.92977  0.53038  0.37589  1.0000
  H   H14       1.0  0.04131  0.48348  0.31363  1.0000
  H   H15       1.0  0.95903  0.41097  0.32074  1.0000
  H   H16       1.0  0.95898  0.48851  0.21741  1.0000
  H   H17       1.0  0.94598  0.51665  0.46065  1.0000
  H   H18       1.0  0.94596  0.59410  0.35720  1.0000
  O   O17       1.0  0.43745  0.51943  0.36159  1.0000
  C   C53       1.0  0.34427  0.41265  0.34765  1.0000
  C   C54       1.0  0.38969  0.46833  0.42142  1.0000
  H   H19       1.0  0.30566  0.37132  0.39599  1.0000
  H   H20       1.0  0.30560  0.44885  0.29265  1.0000
  H   H21       1.0  0.38798  0.37653  0.29968  1.0000
  H   H22       1.0  0.34604  0.50447  0.46945  1.0000
  H   H23       1.0  0.42838  0.43209  0.47635  1.0000
  O   O18       1.0  0.99208  0.20093  0.29410  1.0000
  C   C55       1.0  0.95367  0.22631  0.11543  1.0000
  C   C56       1.0  0.00931  0.18093  0.18932  1.0000
  H   H24       1.0  0.96759  0.21017  0.03070  1.0000
  H   H25       1.0  0.88993  0.21001  0.13387  1.0000
  H   H26       1.0  0.96232  0.29239  0.12704  1.0000
  H   H27       1.0  0.00073  0.11483  0.17775  1.0000
  H   H28       1.0  0.07303  0.19729  0.17087  1.0000
  O   O19       1.0  0.99212  0.03815  0.29433  1.0000
  C   C57       1.0  0.94736  0.91098  0.23479  1.0000
  C   C58       1.0  0.00299  0.95643  0.30859  1.0000
  H   H29       1.0  0.95614  0.84489  0.24628  1.0000
  H   H30       1.0  0.88361  0.92710  0.25333  1.0000
  H   H31       1.0  0.96119  0.92730  0.15007  1.0000
  H   H32       1.0  0.98924  0.94013  0.39334  1.0000
  H   H33       1.0  0.06672  0.94030  0.28996  1.0000
  O   O20       1.0  0.24219  0.91442  0.62588  1.0000
  C   C59       1.0  0.34886  0.82119  0.63994  1.0000
  C   C60       1.0  0.29322  0.86663  0.56611  1.0000
  H   H34       1.0  0.39013  0.78253  0.59165  1.0000
  H   H35       1.0  0.38506  0.86482  0.68793  1.0000
  H   H36       1.0  0.31256  0.78255  0.69491  1.0000
  H   H37       1.0  0.32947  0.90528  0.51108  1.0000
  H   H38       1.0  0.25703  0.82296  0.51820  1.0000
  H   H39       1.0  0.23404  0.31836  0.61552  1.0000
  H   H40       1.0  0.56787  0.47681  0.30491  1.0000
  H   H41       1.0  0.28471  0.04477  0.68261  1.0000
  H   H42       1.0  0.28467  0.19454  0.68264  1.0000
  O   O21       1.0  0.96423  0.70207  0.89768  1.0000
  C   C61       1.0  0.89970  0.60517  0.78949  1.0000
  C   C62       1.0  0.97825  0.63483  0.83546  1.0000
  H   H43       1.0  0.91101  0.55081  0.73916  1.0000
  H   H44       1.0  0.85769  0.58927  0.85600  1.0000
  H   H45       1.0  0.87227  0.65350  0.73923  1.0000
  H   H46       1.0  0.00575  0.58653  0.88571  1.0000
  H   H47       1.0  0.02021  0.65075  0.76890  1.0000
  H   H48       1.0  0.04997  0.78957  0.90852  1.0000
  O   O22       1.0  0.24205  0.51966  0.10122  1.0000
  C   C63       1.0  0.34225  0.41933  0.08966  1.0000
  C   C64       1.0  0.28665  0.47497  0.02935  1.0000
  H   H49       1.0  0.37831  0.38317  0.03158  1.0000
  H   H50       1.0  0.38364  0.45556  0.14099  1.0000
  H   H51       1.0  0.30591  0.37803  0.14107  1.0000
  H   H52       1.0  0.32292  0.51628  0.97788  1.0000
  H   H53       1.0  0.24526  0.43869  0.97809  1.0000
  H   H54       1.0  0.71763  0.47684  0.30495  1.0000
  H   H55       1.0  0.23409  0.52768  0.89369  1.0000
  H   H56       1.0  0.97229  0.71192  0.07783  1.0000
  H   H57       1.0  0.05547  0.78646  0.08206  1.0000
  H   H58       1.0  0.44398  0.71104  0.61540  1.0000
