data_image0
_chemical_formula_structural       Zn8O26C92H2O2C2H8O2C2H6O2C2H6O2C2H10O2C2H8O2C2H8O2C2H12O2C2H8O2C2H6O2C2H8O2C2H6
_chemical_formula_sum              "Zn8 O48 C114 H88"
_cell_length_a       19.8054
_cell_length_b       18.0506
_cell_length_c       19.8054
_cell_angle_alpha    89.9712
_cell_angle_beta     89.9849
_cell_angle_gamma    90.0159

_space_group_name_H-M_alt    "P 1"
_space_group_IT_number       1

loop_
  _space_group_symop_operation_xyz
  'x, y, z'

loop_
  _atom_site_type_symbol
  _atom_site_label
  _atom_site_symmetry_multiplicity
  _atom_site_fract_x
  _atom_site_fract_y
  _atom_site_fract_z
  _atom_site_occupancy
  Zn  Zn1       1.0  0.03476  0.70428  0.61731  1.0000
  Zn  Zn2       1.0  0.53476  0.20428  0.11731  1.0000
  Zn  Zn3       1.0  0.03469  0.58008  0.73050  1.0000
  Zn  Zn4       1.0  0.53469  0.08009  0.23050  1.0000
  Zn  Zn5       1.0  0.92157  0.70426  0.73048  1.0000
  Zn  Zn6       1.0  0.42158  0.20426  0.23048  1.0000
  Zn  Zn7       1.0  0.92155  0.58013  0.61735  1.0000
  Zn  Zn8       1.0  0.42155  0.08013  0.11735  1.0000
  O   O1        1.0  0.97814  0.64219  0.67391  1.0000
  O   O2        1.0  0.47814  0.14219  0.17391  1.0000
  O   O3        1.0  0.12946  0.68779  0.63232  1.0000
  O   O4        1.0  0.62946  0.18779  0.13232  1.0000
  O   O5        1.0  0.01967  0.59653  0.82521  1.0000
  O   O6        1.0  0.51967  0.09653  0.32521  1.0000
  O   O7        1.0  0.93663  0.80819  0.71545  1.0000
  O   O8        1.0  0.43663  0.30819  0.21545  1.0000
  O   O9        1.0  0.12942  0.59655  0.71548  1.0000
  O   O10       1.0  0.62942  0.09655  0.21548  1.0000
  O   O11       1.0  0.01978  0.80820  0.63230  1.0000
  O   O12       1.0  0.51978  0.30820  0.13230  1.0000
  O   O13       1.0  0.93656  0.68776  0.82520  1.0000
  O   O14       1.0  0.43656  0.18776  0.32520  1.0000
  O   O15       1.0  0.82686  0.68781  0.71548  1.0000
  O   O16       1.0  0.32685  0.18781  0.21549  1.0000
  O   O17       1.0  0.93658  0.59663  0.52263  1.0000
  O   O18       1.0  0.43658  0.09663  0.02263  1.0000
  O   O19       1.0  0.82683  0.59661  0.63237  1.0000
  O   O20       1.0  0.32683  0.09661  0.13237  1.0000
  O   O21       1.0  0.01975  0.68784  0.52260  1.0000
  O   O22       1.0  0.51975  0.18784  0.02260  1.0000
  O   O23       1.0  0.01964  0.47617  0.71551  1.0000
  O   O24       1.0  0.51964  0.97617  0.21551  1.0000
  O   O25       1.0  0.93652  0.47620  0.63238  1.0000
  O   O26       1.0  0.43652  0.97620  0.13238  1.0000
  C   C1        1.0  0.80229  0.64221  0.67393  1.0000
  C   C2        1.0  0.30229  0.14221  0.17393  1.0000
  C   C3        1.0  0.72705  0.64221  0.67392  1.0000
  C   C4        1.0  0.22705  0.14221  0.17392  1.0000
  C   C5        1.0  0.69173  0.68963  0.63055  1.0000
  C   C6        1.0  0.19173  0.18963  0.13055  1.0000
  C   C7        1.0  0.62105  0.68963  0.63055  1.0000
  C   C8        1.0  0.12105  0.18963  0.13055  1.0000
  C   C9        1.0  0.58568  0.64219  0.67391  1.0000
  C   C10       1.0  0.08568  0.14219  0.17391  1.0000
  C   C11       1.0  0.62100  0.59476  0.71728  1.0000
  C   C12       1.0  0.12100  0.09476  0.21728  1.0000
  C   C13       1.0  0.69169  0.59477  0.71729  1.0000
  C   C14       1.0  0.19169  0.09477  0.21729  1.0000
  C   C15       1.0  0.33593  0.59473  0.71726  1.0000
  C   C16       1.0  0.83593  0.09473  0.21726  1.0000
  C   C17       1.0  0.26524  0.59472  0.71725  1.0000
  C   C18       1.0  0.76524  0.09473  0.21725  1.0000
  C   C19       1.0  0.26529  0.68959  0.63052  1.0000
  C   C20       1.0  0.76529  0.18959  0.13052  1.0000
  C   C21       1.0  0.33597  0.68960  0.63053  1.0000
  C   C22       1.0  0.83597  0.18960  0.13053  1.0000
  C   C23       1.0  0.37129  0.64217  0.67390  1.0000
  C   C24       1.0  0.87129  0.14217  0.17390  1.0000
  C   C25       1.0  0.44794  0.64217  0.67390  1.0000
  C   C26       1.0  0.94794  0.14217  0.17390  1.0000
  C   C27       1.0  0.50903  0.64218  0.67390  1.0000
  C   C28       1.0  0.00903  0.14218  0.17390  1.0000
  C   C29       1.0  0.97809  0.44924  0.67394  1.0000
  C   C30       1.0  0.47809  0.94924  0.17394  1.0000
  C   C31       1.0  0.97813  0.36669  0.67393  1.0000
  C   C32       1.0  0.47813  0.86669  0.17393  1.0000
  C   C33       1.0  0.02343  0.16725  0.71907  1.0000
  C   C34       1.0  0.52343  0.66725  0.21907  1.0000
  C   C35       1.0  0.03996  0.11792  0.65730  1.0000
  C   C36       1.0  0.53996  0.61792  0.15730  1.0000
  C   C37       1.0  0.97817  0.21556  0.67390  1.0000
  C   C38       1.0  0.47817  0.71556  0.17390  1.0000
  C   C39       1.0  0.96171  0.11781  0.73565  1.0000
  C   C40       1.0  0.46171  0.61781  0.23565  1.0000
  C   C41       1.0  0.97821  0.06958  0.67388  1.0000
  C   C42       1.0  0.47821  0.56958  0.17388  1.0000
  C   C43       1.0  0.99473  0.16732  0.61209  1.0000
  C   C44       1.0  0.49473  0.66732  0.11209  1.0000
  C   C45       1.0  0.91645  0.16722  0.69049  1.0000
  C   C46       1.0  0.41645  0.66722  0.19048  1.0000
  C   C47       1.0  0.93296  0.11791  0.62867  1.0000
  C   C48       1.0  0.43296  0.61791  0.12867  1.0000
  C   C49       1.0  0.97815  0.29966  0.67391  1.0000
  C   C50       1.0  0.47815  0.79966  0.17391  1.0000
  C   C51       1.0  0.97823  0.98548  0.67386  1.0000
  C   C52       1.0  0.47823  0.48548  0.17386  1.0000
  C   C53       1.0  0.15468  0.64217  0.67389  1.0000
  C   C54       1.0  0.65468  0.14217  0.17389  1.0000
  C   C55       1.0  0.22992  0.64216  0.67389  1.0000
  C   C56       1.0  0.72992  0.14216  0.17389  1.0000
  C   C57       1.0  0.97817  0.64224  0.49737  1.0000
  C   C58       1.0  0.47817  0.14224  0.99737  1.0000
  C   C59       1.0  0.97818  0.64226  0.42214  1.0000
  C   C60       1.0  0.47818  0.14226  0.92214  1.0000
  C   C61       1.0  0.97821  0.83590  0.67387  1.0000
  C   C62       1.0  0.47821  0.33590  0.17387  1.0000
  C   C63       1.0  0.97824  0.91844  0.67385  1.0000
  C   C64       1.0  0.47824  0.41844  0.17385  1.0000
  C   C65       1.0  0.93492  0.68977  0.38679  1.0000
  C   C66       1.0  0.43492  0.18977  0.88679  1.0000
  C   C67       1.0  0.93493  0.68979  0.31610  1.0000
  C   C68       1.0  0.43493  0.18979  0.81610  1.0000
  C   C69       1.0  0.97821  0.64230  0.28076  1.0000
  C   C70       1.0  0.47821  0.14230  0.78076  1.0000
  C   C71       1.0  0.02147  0.59478  0.31612  1.0000
  C   C72       1.0  0.52147  0.09478  0.81612  1.0000
  C   C73       1.0  0.02146  0.59476  0.38680  1.0000
  C   C74       1.0  0.52146  0.09476  0.88680  1.0000
  C   C75       1.0  0.02152  0.59485  0.03104  1.0000
  C   C76       1.0  0.52152  0.09485  0.53104  1.0000
  C   C77       1.0  0.02154  0.59487  0.96035  1.0000
  C   C78       1.0  0.52154  0.09487  0.46035  1.0000
  C   C79       1.0  0.93500  0.68988  0.96034  1.0000
  C   C80       1.0  0.43500  0.18987  0.46034  1.0000
  C   C81       1.0  0.93499  0.68986  0.03102  1.0000
  C   C82       1.0  0.43499  0.18986  0.53102  1.0000
  C   C83       1.0  0.97825  0.64234  0.06637  1.0000
  C   C84       1.0  0.47825  0.14234  0.56637  1.0000
  C   C85       1.0  0.97823  0.64232  0.14302  1.0000
  C   C86       1.0  0.47823  0.14232  0.64302  1.0000
  C   C87       1.0  0.97822  0.64231  0.20411  1.0000
  C   C88       1.0  0.47822  0.14231  0.70411  1.0000
  C   C89       1.0  0.97815  0.64219  0.84977  1.0000
  C   C90       1.0  0.47815  0.14219  0.34977  1.0000
  C   C91       1.0  0.97827  0.64238  0.92500  1.0000
  C   C92       1.0  0.47827  0.14238  0.42500  1.0000
  H   H1        1.0  0.59229  0.72825  0.59523  1.0000
  H   H2        1.0  0.09229  0.22825  0.09523  1.0000
  O   O27       1.0  0.23085  0.54857  0.75928  1.0000
  O   O28       1.0  0.73085  0.04857  0.25928  1.0000
  C   C93       1.0  0.18996  0.50055  0.72082  1.0000
  C   C94       1.0  0.68996  0.00055  0.22082  1.0000
  H   H3        1.0  0.21128  0.49588  0.66752  1.0000
  H   H4        1.0  0.71128  0.99588  0.16753  1.0000
  H   H5        1.0  0.18913  0.44344  0.74540  1.0000
  H   H6        1.0  0.68913  0.94344  0.24540  1.0000
  H   H7        1.0  0.13639  0.52350  0.71844  1.0000
  H   H8        1.0  0.63639  0.02350  0.21844  1.0000
  H   H9        1.0  0.36477  0.72822  0.59522  1.0000
  H   H10       1.0  0.86477  0.22822  0.09522  1.0000
  O   O29       1.0  0.23105  0.73577  0.58843  1.0000
  O   O30       1.0  0.73105  0.23577  0.08843  1.0000
  C   C95       1.0  0.24832  0.80981  0.60310  1.0000
  C   C96       1.0  0.74832  0.30981  0.10311  1.0000
  H   H11       1.0  0.29964  0.81139  0.62913  1.0000
  H   H12       1.0  0.79964  0.31139  0.12913  1.0000
  H   H13       1.0  0.25077  0.84304  0.55420  1.0000
  H   H14       1.0  0.75077  0.34304  0.05420  1.0000
  H   H15       1.0  0.20853  0.83487  0.63786  1.0000
  H   H16       1.0  0.70853  0.33487  0.13786  1.0000
  O   O31       1.0  0.72612  0.73561  0.58836  1.0000
  O   O32       1.0  0.22612  0.23561  0.08836  1.0000
  C   C97       1.0  0.76703  0.69327  0.54472  1.0000
  C   C98       1.0  0.26703  0.19327  0.04472  1.0000
  H   H17       1.0  0.74572  0.63477  0.54064  1.0000
  H   H18       1.0  0.24572  0.13477  0.04064  1.0000
  H   H19       1.0  0.76785  0.72006  0.49259  1.0000
  H   H20       1.0  0.26785  0.22006  0.99259  1.0000
  H   H21       1.0  0.82059  0.69075  0.56566  1.0000
  H   H22       1.0  0.32059  0.19075  0.06566  1.0000
  O   O33       1.0  0.01145  0.19326  0.54982  1.0000
  O   O34       1.0  0.51145  0.69327  0.04982  1.0000
  C   C99       1.0  0.01124  0.27137  0.55058  1.0000
  C   C100      1.0  0.51124  0.77137  0.05058  1.0000
  H   H23       1.0  0.01880  0.29178  0.60452  1.0000
  H   H24       1.0  0.51880  0.79178  0.10451  1.0000
  H   H25       1.0  0.05391  0.29299  0.51732  1.0000
  H   H26       1.0  0.55391  0.79299  0.01732  1.0000
  H   H27       1.0  0.96085  0.29250  0.53053  1.0000
  H   H28       1.0  0.46085  0.79250  0.03053  1.0000
  H   H29       1.0  0.09217  0.09626  0.64326  1.0000
  H   H30       1.0  0.59217  0.59626  0.14325  1.0000
  H   H31       1.0  0.36468  0.55611  0.75258  1.0000
  H   H32       1.0  0.86468  0.05611  0.25258  1.0000
  O   O35       1.0  0.58654  0.54871  0.75934  1.0000
  O   O36       1.0  0.08654  0.04871  0.25934  1.0000
  C   C101      1.0  0.51658  0.55888  0.75005  1.0000
  C   C102      1.0  0.01658  0.05888  0.25005  1.0000
  H   H33       1.0  0.50695  0.58313  0.69777  1.0000
  H   H34       1.0  0.00695  0.08313  0.19777  1.0000
  H   H35       1.0  0.48970  0.50326  0.75473  1.0000
  H   H36       1.0  0.98970  0.00326  0.25473  1.0000
  H   H37       1.0  0.49651  0.59848  0.79013  1.0000
  H   H38       1.0  0.99651  0.09849  0.29013  1.0000
  H   H39       1.0  0.86426  0.18889  0.70454  1.0000
  H   H40       1.0  0.36426  0.68889  0.20455  1.0000
  O   O37       1.0  0.89304  0.73613  0.92603  1.0000
  O   O38       1.0  0.39304  0.23613  0.42603  1.0000
  C   C103      1.0  0.90785  0.81014  0.94329  1.0000
  C   C104      1.0  0.40785  0.31014  0.44329  1.0000
  H   H41       1.0  0.96192  0.81388  0.96272  1.0000
  H   H42       1.0  0.46192  0.31388  0.46272  1.0000
  H   H43       1.0  0.90204  0.84685  0.89680  1.0000
  H   H44       1.0  0.40204  0.34685  0.39680  1.0000
  H   H45       1.0  0.87156  0.82955  0.98432  1.0000
  H   H46       1.0  0.37156  0.32955  0.48432  1.0000
  H   H47       1.0  0.89970  0.72847  0.28732  1.0000
  H   H48       1.0  0.39970  0.22847  0.78732  1.0000
  O   O39       1.0  0.88732  0.09209  0.58309  1.0000
  O   O40       1.0  0.38732  0.59209  0.08309  1.0000
  C   C105      1.0  0.88747  0.01399  0.58395  1.0000
  C   C106      1.0  0.38747  0.51399  0.08395  1.0000
  H   H49       1.0  0.90764  0.99363  0.63457  1.0000
  H   H50       1.0  0.40764  0.49363  0.13457  1.0000
  H   H51       1.0  0.83380  0.99270  0.57644  1.0000
  H   H52       1.0  0.33380  0.49270  0.07644  1.0000
  H   H53       1.0  0.92109  0.99247  0.54154  1.0000
  H   H54       1.0  0.42109  0.49247  0.04154  1.0000
  H   H55       1.0  0.94777  0.09607  0.78787  1.0000
  H   H56       1.0  0.44777  0.59607  0.28787  1.0000
  H   H57       1.0  0.72045  0.55615  0.75260  1.0000
  H   H58       1.0  0.22044  0.05615  0.25260  1.0000
  H   H59       1.0  0.05678  0.55620  0.93158  1.0000
  H   H60       1.0  0.55677  0.05620  0.43158  1.0000
  O   O41       1.0  0.06919  0.19307  0.76452  1.0000
  O   O42       1.0  0.56919  0.69307  0.26452  1.0000
  C   C107      1.0  0.13421  0.16793  0.74677  1.0000
  C   C108      1.0  0.63421  0.66793  0.24677  1.0000
  H   H61       1.0  0.13546  0.15412  0.69063  1.0000
  H   H62       1.0  0.63546  0.65412  0.19063  1.0000
  H   H63       1.0  0.17282  0.21312  0.75803  1.0000
  H   H64       1.0  0.67282  0.71312  0.25803  1.0000
  H   H65       1.0  0.14694  0.11624  0.77731  1.0000
  H   H66       1.0  0.64694  0.61624  0.27731  1.0000
  H   H67       1.0  0.89969  0.72845  0.41555  1.0000
  H   H68       1.0  0.39969  0.22845  0.91555  1.0000
  O   O43       1.0  0.89285  0.73591  0.06532  1.0000
  O   O44       1.0  0.39285  0.23591  0.56532  1.0000
  C   C109      1.0  0.82539  0.71970  0.04804  1.0000
  C   C110      1.0  0.32539  0.21970  0.54804  1.0000
  H   H69       1.0  0.82196  0.66038  0.02863  1.0000
  H   H70       1.0  0.32196  0.16038  0.52862  1.0000
  H   H71       1.0  0.79195  0.72609  0.09453  1.0000
  H   H72       1.0  0.29195  0.22609  0.59453  1.0000
  H   H73       1.0  0.80772  0.75953  0.00700  1.0000
  H   H74       1.0  0.30772  0.25953  0.50700  1.0000
  O   O45       1.0  0.06362  0.54868  0.06527  1.0000
  O   O46       1.0  0.56362  0.04868  0.56527  1.0000
  C   C111      1.0  0.10180  0.50676  0.01892  1.0000
  C   C112      1.0  0.60180  0.00676  0.51892  1.0000
  H   H75       1.0  0.10416  0.53719  0.96852  1.0000
  H   H76       1.0  0.60416  0.03719  0.46852  1.0000
  H   H77       1.0  0.15513  0.49884  0.03934  1.0000
  H   H78       1.0  0.65513  0.99884  0.53933  1.0000
  H   H79       1.0  0.07701  0.45036  0.01142  1.0000
  H   H80       1.0  0.57701  0.95036  0.51142  1.0000
  H   H81       1.0  0.05670  0.55611  0.28734  1.0000
  H   H82       1.0  0.55670  0.05611  0.78734  1.0000
  O   O47       1.0  0.06354  0.54859  0.42104  1.0000
  O   O48       1.0  0.56354  0.04859  0.92104  1.0000
  C   C113      1.0  0.10173  0.50666  0.37469  1.0000
  C   C114      1.0  0.60173  0.00666  0.87469  1.0000
  H   H83       1.0  0.10410  0.53709  0.32430  1.0000
  H   H84       1.0  0.60410  0.03709  0.82430  1.0000
  H   H85       1.0  0.15505  0.49872  0.39512  1.0000
  H   H86       1.0  0.65505  0.99872  0.89512  1.0000
  H   H87       1.0  0.07692  0.45027  0.36719  1.0000
  H   H88       1.0  0.57692  0.95027  0.86719  1.0000
