data_image0
_chemical_formula_structural       O7Cu2OC9O7Cu2OC18O7Cu2O8Cu2O8Cu2OC36O7Cu2OC9HBr3HBr2H2Br2H2BrH2BrH2BrHBr2H
_chemical_formula_sum              "O48 Cu12 C72 H12 Br12"
_cell_length_a       18.6272
_cell_length_b       18.6272
_cell_length_c       18.6273
_cell_angle_alpha    90.002
_cell_angle_beta     59.9978
_cell_angle_gamma    120

_space_group_name_H-M_alt    "P 1"
_space_group_IT_number       1

loop_
  _space_group_symop_operation_xyz
  'x, y, z'

loop_
  _atom_site_type_symbol
  _atom_site_label
  _atom_site_symmetry_multiplicity
  _atom_site_fract_x
  _atom_site_fract_y
  _atom_site_fract_z
  _atom_site_occupancy
  O   O1        1.0  0.63324  0.50752  0.97864  1.0000
  O   O2        1.0  0.48623  0.61191  0.02126  1.0000
  O   O3        1.0  0.63323  0.61191  0.87425  1.0000
  O   O4        1.0  0.48624  0.50751  0.12565  1.0000
  O   O5        1.0  0.51383  0.49251  0.87425  1.0000
  O   O6        1.0  0.36683  0.49251  0.02126  1.0000
  O   O7        1.0  0.51384  0.38811  0.97864  1.0000
  Cu  Cu1       1.0  0.42943  0.42941  0.99995  1.0000
  Cu  Cu2       1.0  0.57064  0.57062  0.99995  1.0000
  O   O8        1.0  0.36683  0.38811  0.12565  1.0000
  C   C1        1.0  0.35604  0.74302  0.03094  1.0000
  C   C2        1.0  0.40644  0.83772  0.02484  1.0000
  C   C3        1.0  0.26904  0.69942  0.03154  1.0000
  C   C4        1.0  0.35604  0.61302  0.03094  1.0000
  C   C5        1.0  0.40643  0.56871  0.02485  1.0000
  C   C6        1.0  0.26904  0.56961  0.03155  1.0000
  C   C7        1.0  0.22604  0.61302  0.03094  1.0000
  C   C8        1.0  0.13745  0.56872  0.02483  1.0000
  C   C9        1.0  0.39884  0.69942  0.03155  1.0000
  O   O9        1.0  0.89565  0.38812  0.97863  1.0000
  O   O10       1.0  0.10444  0.49252  0.02124  1.0000
  O   O11       1.0  0.10445  0.49251  0.87423  1.0000
  O   O12       1.0  0.89564  0.38812  0.12563  1.0000
  O   O13       1.0  0.10446  0.61192  0.87423  1.0000
  O   O14       1.0  0.10445  0.61192  0.02123  1.0000
  O   O15       1.0  0.89566  0.50752  0.97862  1.0000
  Cu  Cu3       1.0  0.00005  0.57062  0.99993  1.0000
  Cu  Cu4       1.0  0.00005  0.42942  0.99994  1.0000
  O   O16       1.0  0.89564  0.50753  0.12563  1.0000
  C   C10       1.0  0.64403  0.61301  0.61295  1.0000
  C   C11       1.0  0.59364  0.56871  0.56865  1.0000
  C   C12       1.0  0.73104  0.69941  0.56955  1.0000
  C   C13       1.0  0.64403  0.61301  0.74295  1.0000
  C   C14       1.0  0.59364  0.56871  0.83765  1.0000
  C   C15       1.0  0.73104  0.69941  0.69935  1.0000
  C   C16       1.0  0.77403  0.74301  0.61295  1.0000
  C   C17       1.0  0.86263  0.83771  0.56865  1.0000
  C   C18       1.0  0.60123  0.56961  0.69935  1.0000
  C   C19       1.0  0.77405  0.38702  0.96893  1.0000
  C   C20       1.0  0.86265  0.43132  0.97503  1.0000
  C   C21       1.0  0.73105  0.30062  0.96833  1.0000
  C   C22       1.0  0.64404  0.38701  0.96894  1.0000
  C   C23       1.0  0.59364  0.43131  0.97504  1.0000
  C   C24       1.0  0.60125  0.30062  0.96833  1.0000
  C   C25       1.0  0.64405  0.25702  0.96894  1.0000
  C   C26       1.0  0.59365  0.16232  0.97503  1.0000
  C   C27       1.0  0.73105  0.43042  0.96833  1.0000
  O   O17       1.0  0.51385  0.12572  0.97862  1.0000
  O   O18       1.0  0.36685  0.87432  0.02123  1.0000
  O   O19       1.0  0.51386  0.02131  0.87423  1.0000
  O   O20       1.0  0.36684  0.97873  0.12563  1.0000
  O   O21       1.0  0.63325  0.02131  0.87423  1.0000
  O   O22       1.0  0.48624  0.87432  0.02124  1.0000
  O   O23       1.0  0.63325  0.12572  0.97863  1.0000
  Cu  Cu5       1.0  0.57065  0.00002  0.99994  1.0000
  Cu  Cu6       1.0  0.42945  0.00002  0.99993  1.0000
  O   O24       1.0  0.48624  0.97873  0.12564  1.0000
  O   O25       1.0  0.10443  0.12571  0.50746  1.0000
  O   O26       1.0  0.89563  0.87431  0.61185  1.0000
  O   O27       1.0  0.89563  0.02131  0.61186  1.0000
  O   O28       1.0  0.10444  0.97871  0.50745  1.0000
  O   O29       1.0  0.89563  0.02131  0.49246  1.0000
  O   O30       1.0  0.89564  0.87431  0.49245  1.0000
  O   O31       1.0  0.10443  0.12571  0.38806  1.0000
  Cu  Cu7       1.0  0.00004  0.00001  0.42935  1.0000
  Cu  Cu8       1.0  0.00003  0.00001  0.57056  1.0000
  O   O32       1.0  0.10444  0.97871  0.38805  1.0000
  O   O33       1.0  0.48623  0.50751  0.38805  1.0000
  O   O34       1.0  0.63323  0.61191  0.49245  1.0000
  O   O35       1.0  0.48623  0.61191  0.49246  1.0000
  O   O36       1.0  0.63324  0.50751  0.38804  1.0000
  O   O37       1.0  0.36683  0.49251  0.61186  1.0000
  O   O38       1.0  0.51384  0.49251  0.61185  1.0000
  O   O39       1.0  0.36683  0.38811  0.50745  1.0000
  Cu  Cu9       1.0  0.42943  0.42941  0.57055  1.0000
  Cu  Cu10      1.0  0.57064  0.57061  0.42935  1.0000
  O   O40       1.0  0.51384  0.38811  0.50745  1.0000
  C   C28       1.0  0.22604  0.25701  0.38695  1.0000
  C   C29       1.0  0.13744  0.16231  0.43125  1.0000
  C   C30       1.0  0.26903  0.30061  0.43035  1.0000
  C   C31       1.0  0.35604  0.38701  0.25695  1.0000
  C   C32       1.0  0.40644  0.43131  0.16225  1.0000
  C   C33       1.0  0.39883  0.43042  0.30055  1.0000
  C   C34       1.0  0.35604  0.38701  0.38695  1.0000
  C   C35       1.0  0.40643  0.43131  0.43125  1.0000
  C   C36       1.0  0.26903  0.30061  0.30055  1.0000
  C   C37       1.0  0.35607  0.74301  0.61293  1.0000
  C   C38       1.0  0.40647  0.83770  0.56862  1.0000
  C   C39       1.0  0.39887  0.69940  0.56953  1.0000
  C   C40       1.0  0.22606  0.61301  0.74293  1.0000
  C   C41       1.0  0.13746  0.56871  0.83763  1.0000
  C   C42       1.0  0.26906  0.56960  0.69933  1.0000
  C   C43       1.0  0.35607  0.61300  0.61293  1.0000
  C   C44       1.0  0.40647  0.56870  0.56864  1.0000
  C   C45       1.0  0.26906  0.69941  0.69933  1.0000
  C   C46       1.0  0.64402  0.38704  0.38693  1.0000
  C   C47       1.0  0.59363  0.43134  0.43123  1.0000
  C   C48       1.0  0.60123  0.30064  0.43034  1.0000
  C   C49       1.0  0.77403  0.38703  0.25693  1.0000
  C   C50       1.0  0.86264  0.43133  0.16223  1.0000
  C   C51       1.0  0.73103  0.30063  0.30053  1.0000
  C   C52       1.0  0.64402  0.25703  0.38693  1.0000
  C   C53       1.0  0.59362  0.16234  0.43124  1.0000
  C   C54       1.0  0.73104  0.43044  0.30053  1.0000
  C   C55       1.0  0.77404  0.03096  0.61294  1.0000
  C   C56       1.0  0.86264  0.02486  0.56865  1.0000
  C   C57       1.0  0.73105  0.03156  0.56954  1.0000
  C   C58       1.0  0.64405  0.03099  0.74294  1.0000
  C   C59       1.0  0.59365  0.02490  0.83763  1.0000
  C   C60       1.0  0.60125  0.03159  0.69933  1.0000
  C   C61       1.0  0.64405  0.03097  0.61294  1.0000
  C   C62       1.0  0.59365  0.02486  0.56863  1.0000
  C   C63       1.0  0.73105  0.03158  0.69934  1.0000
  O   O41       1.0  0.63330  0.12570  0.38803  1.0000
  O   O42       1.0  0.48628  0.87430  0.49242  1.0000
  O   O43       1.0  0.63327  0.02129  0.49244  1.0000
  O   O44       1.0  0.48631  0.97871  0.38801  1.0000
  O   O45       1.0  0.51386  0.02129  0.61184  1.0000
  O   O46       1.0  0.36687  0.87430  0.61182  1.0000
  O   O47       1.0  0.51389  0.12571  0.50742  1.0000
  Cu  Cu11      1.0  0.42948  0.00000  0.57052  1.0000
  Cu  Cu12      1.0  0.57069  0.00000  0.42932  1.0000
  O   O48       1.0  0.36690  0.97872  0.50741  1.0000
  C   C64       1.0  0.35605  0.96907  0.38693  1.0000
  C   C65       1.0  0.40644  0.97517  0.43123  1.0000
  C   C66       1.0  0.26905  0.96847  0.43033  1.0000
  C   C67       1.0  0.35605  0.96905  0.25693  1.0000
  C   C68       1.0  0.40644  0.97513  0.16223  1.0000
  C   C69       1.0  0.26905  0.96846  0.30052  1.0000
  C   C70       1.0  0.22605  0.96908  0.38692  1.0000
  C   C71       1.0  0.13746  0.97518  0.43121  1.0000
  C   C72       1.0  0.39884  0.96845  0.30053  1.0000
  H   H1        1.0  0.23306  0.73443  0.03252  1.0000
  Br  Br1       1.0  0.20909  0.75775  0.75767  1.0000
  Br  Br2       1.0  0.79101  0.54875  0.24217  1.0000
  Br  Br3       1.0  0.48455  0.45129  0.75769  1.0000
  H   H2        1.0  0.23306  0.96750  0.50132  1.0000
  Br  Br4       1.0  0.20907  0.45130  0.03316  1.0000
  Br  Br5       1.0  0.79104  0.24228  0.96667  1.0000
  H   H3        1.0  0.76702  0.26563  0.26553  1.0000
  H   H4        1.0  0.46884  0.73442  0.03253  1.0000
  Br  Br6       1.0  0.51553  0.96682  0.24219  1.0000
  Br  Br7       1.0  0.48456  0.03322  0.75767  1.0000
  H   H5        1.0  0.76704  0.03254  0.49855  1.0000
  H   H6        1.0  0.53121  0.26564  0.50133  1.0000
  Br  Br8       1.0  0.79096  0.75779  0.75772  1.0000
  H   H7        1.0  0.76703  0.03256  0.73435  1.0000
  H   H8        1.0  0.46885  0.50140  0.26554  1.0000
  Br  Br9       1.0  0.20905  0.96679  0.24219  1.0000
  H   H9        1.0  0.76702  0.73441  0.49856  1.0000
  H   H10       1.0  0.23304  0.26561  0.26555  1.0000
  Br  Br10      1.0  0.48455  0.24227  0.96671  1.0000
  H   H11       1.0  0.23303  0.26561  0.50135  1.0000
  Br  Br11      1.0  0.79101  0.54873  0.96672  1.0000
  Br  Br12      1.0  0.20909  0.45129  0.75768  1.0000
  H   H12       1.0  0.46890  0.73441  0.49854  1.0000
