data_image0
_chemical_formula_structural       O14Zn4O2N4C68N2O14Zn4O2N4O14Zn4O2N4O14Zn4O2N2C32H2N2H10N2H8N2H10N2H4N2H4N2H4N2H4N2H4N2H6N2H4N2H6N2H6N2H4N2H8N2H6N2H4N2H4
_chemical_formula_sum              "O64 Zn16 N50 C100 H98"
_cell_length_a       27.354
_cell_length_b       27.3533
_cell_length_c       27.3496
_cell_angle_alpha    60.0056
_cell_angle_beta     60.0114
_cell_angle_gamma    59.9933

_space_group_name_H-M_alt    "P 1"
_space_group_IT_number       1

loop_
  _space_group_symop_operation_xyz
  'x, y, z'

loop_
  _atom_site_type_symbol
  _atom_site_label
  _atom_site_symmetry_multiplicity
  _atom_site_fract_x
  _atom_site_fract_y
  _atom_site_fract_z
  _atom_site_occupancy
  O   O1        1.0  0.06763  0.28573  0.59733  1.0000
  O   O2        1.0  0.56764  0.78573  0.09733  1.0000
  O   O3        1.0  0.02543  0.44390  0.48128  1.0000
  O   O4        1.0  0.52543  0.94389  0.98128  1.0000
  O   O5        1.0  0.12557  0.34381  0.48121  1.0000
  O   O6        1.0  0.62558  0.84381  0.98121  1.0000
  O   O7        1.0  0.96749  0.38581  0.59740  1.0000
  O   O8        1.0  0.46749  0.88581  0.09740  1.0000
  O   O9        1.0  0.15880  0.37703  0.51437  1.0000
  O   O10       1.0  0.65880  0.87703  0.01437  1.0000
  O   O11       1.0  0.05865  0.47711  0.51443  1.0000
  O   O12       1.0  0.55865  0.97711  0.01443  1.0000
  O   O13       1.0  0.10086  0.31895  0.63048  1.0000
  O   O14       1.0  0.60086  0.81895  0.13048  1.0000
  Zn  Zn1       1.0  0.08503  0.40331  0.57772  1.0000
  Zn  Zn2       1.0  0.58503  0.90331  0.07772  1.0000
  Zn  Zn3       1.0  0.04126  0.35954  0.53404  1.0000
  Zn  Zn4       1.0  0.54126  0.85954  0.03404  1.0000
  O   O15       1.0  0.00071  0.41903  0.63055  1.0000
  O   O16       1.0  0.50071  0.91903  0.13055  1.0000
  N   N1        1.0  0.11490  0.43317  0.60753  1.0000
  N   N2        1.0  0.61490  0.93317  0.10753  1.0000
  N   N3        1.0  0.01139  0.32967  0.50423  1.0000
  N   N4        1.0  0.51139  0.82967  0.00423  1.0000
  C   C1        1.0  0.17940  0.66180  0.67202  1.0000
  C   C2        1.0  0.67940  0.16180  0.17202  1.0000
  C   C3        1.0  0.17950  0.49761  0.83616  1.0000
  C   C4        1.0  0.67950  0.99761  0.33616  1.0000
  C   C5        1.0  0.17942  0.49764  0.67200  1.0000
  C   C6        1.0  0.67941  0.99764  0.17200  1.0000
  C   C7        1.0  0.34361  0.49763  0.67196  1.0000
  C   C8        1.0  0.84361  0.99763  0.17196  1.0000
  C   C9        1.0  0.19748  0.60763  0.69006  1.0000
  C   C10       1.0  0.69748  0.10763  0.19006  1.0000
  C   C11       1.0  0.19753  0.51568  0.78198  1.0000
  C   C12       1.0  0.69753  0.01568  0.28198  1.0000
  C   C13       1.0  0.28943  0.51569  0.69003  1.0000
  C   C14       1.0  0.78943  0.01569  0.19003  1.0000
  C   C15       1.0  0.19749  0.51569  0.69005  1.0000
  C   C16       1.0  0.69749  0.01569  0.19005  1.0000
  C   C17       1.0  0.15640  0.73076  0.64905  1.0000
  C   C18       1.0  0.65640  0.23076  0.14905  1.0000
  C   C19       1.0  0.15642  0.47466  0.64902  1.0000
  C   C20       1.0  0.65642  0.97466  0.14901  1.0000
  C   C21       1.0  0.22048  0.53867  0.71303  1.0000
  C   C22       1.0  0.72048  0.03867  0.21303  1.0000
  C   C23       1.0  0.44389  0.51490  0.61917  1.0000
  C   C24       1.0  0.94389  0.01490  0.11917  1.0000
  C   C25       1.0  0.50657  0.49401  0.59827  1.0000
  C   C26       1.0  0.00657  0.99401  0.09827  1.0000
  C   C27       1.0  0.50659  0.39259  0.63694  1.0000
  C   C28       1.0  0.00659  0.89259  0.13694  1.0000
  C   C29       1.0  0.44391  0.41349  0.65785  1.0000
  C   C30       1.0  0.94391  0.91349  0.15785  1.0000
  C   C31       1.0  0.17151  0.76211  0.58742  1.0000
  C   C32       1.0  0.67151  0.26211  0.08742  1.0000
  C   C33       1.0  0.15059  0.82480  0.56654  1.0000
  C   C34       1.0  0.65059  0.32480  0.06654  1.0000
  C   C35       1.0  0.09946  0.82478  0.66891  1.0000
  C   C36       1.0  0.59946  0.32478  0.16891  1.0000
  C   C37       1.0  0.12037  0.76209  0.68979  1.0000
  C   C38       1.0  0.62038  0.26209  0.18979  1.0000
  C   C39       1.0  0.09479  0.48980  0.66418  1.0000
  C   C40       1.0  0.59479  0.98980  0.16418  1.0000
  C   C41       1.0  0.07389  0.46891  0.64328  1.0000
  C   C42       1.0  0.57389  0.96891  0.14328  1.0000
  C   C43       1.0  0.17624  0.41774  0.59207  1.0000
  C   C44       1.0  0.67624  0.91774  0.09207  1.0000
  C   C45       1.0  0.19714  0.43863  0.61296  1.0000
  C   C46       1.0  0.69714  0.93863  0.11296  1.0000
  C   C47       1.0  0.09493  0.48976  0.93648  1.0000
  C   C48       1.0  0.59493  0.98976  0.43648  1.0000
  C   C49       1.0  0.07407  0.46885  0.99916  1.0000
  C   C50       1.0  0.57407  0.96885  0.49916  1.0000
  C   C51       1.0  0.17645  0.41766  0.99913  1.0000
  C   C52       1.0  0.67645  0.91766  0.49913  1.0000
  C   C53       1.0  0.19731  0.43857  0.93644  1.0000
  C   C54       1.0  0.69731  0.93857  0.43644  1.0000
  C   C55       1.0  0.15655  0.47462  0.90512  1.0000
  C   C56       1.0  0.65655  0.97462  0.40512  1.0000
  C   C57       1.0  0.41256  0.47464  0.64896  1.0000
  C   C58       1.0  0.91256  0.97464  0.14896  1.0000
  C   C59       1.0  0.90149  0.31176  0.48587  1.0000
  C   C60       1.0  0.40149  0.81177  0.98587  1.0000
  C   C61       1.0  0.99354  0.31163  0.39407  1.0000
  C   C62       1.0  0.49354  0.81163  0.89407  1.0000
  C   C63       1.0  0.99336  0.21974  0.48604  1.0000
  C   C64       1.0  0.49335  0.71974  0.98604  1.0000
  C   C65       1.0  0.99337  0.31164  0.48610  1.0000
  C   C66       1.0  0.49337  0.81164  0.98610  1.0000
  C   C67       1.0  0.97044  0.28869  0.46302  1.0000
  C   C68       1.0  0.47044  0.78869  0.96302  1.0000
  N   N5        1.0  0.53703  0.43315  0.60744  1.0000
  N   N6        1.0  0.03703  0.93315  0.10744  1.0000
  O   O17       1.0  0.74188  0.42315  0.45999  1.0000
  O   O18       1.0  0.24188  0.92315  0.96000  1.0000
  O   O19       1.0  0.74205  0.30676  0.61801  1.0000
  O   O20       1.0  0.24205  0.80676  0.11801  1.0000
  O   O21       1.0  0.74199  0.30702  0.51779  1.0000
  O   O22       1.0  0.24199  0.80702  0.01779  1.0000
  O   O23       1.0  0.74194  0.42289  0.56021  1.0000
  O   O24       1.0  0.24194  0.92289  0.06021  1.0000
  O   O25       1.0  0.64241  0.34016  0.55105  1.0000
  O   O26       1.0  0.14240  0.84016  0.05105  1.0000
  O   O27       1.0  0.64247  0.33990  0.65126  1.0000
  O   O28       1.0  0.14247  0.83990  0.15127  1.0000
  O   O29       1.0  0.64230  0.45629  0.49325  1.0000
  O   O30       1.0  0.14230  0.95629  0.99325  1.0000
  Zn  Zn5       1.0  0.62657  0.40335  0.57754  1.0000
  Zn  Zn6       1.0  0.12657  0.90335  0.07754  1.0000
  Zn  Zn7       1.0  0.75777  0.35969  0.53372  1.0000
  Zn  Zn8       1.0  0.25777  0.85969  0.03372  1.0000
  O   O31       1.0  0.64236  0.45602  0.59347  1.0000
  O   O32       1.0  0.14236  0.95602  0.09347  1.0000
  N   N7        1.0  0.84732  0.32989  0.50382  1.0000
  N   N8        1.0  0.34732  0.82989  0.00382  1.0000
  N   N9        1.0  0.11488  0.85524  0.60758  1.0000
  N   N10       1.0  0.61488  0.35524  0.10758  1.0000
  O   O33       1.0  0.96750  0.06019  0.59744  1.0000
  O   O34       1.0  0.46750  0.56019  0.09744  1.0000
  O   O35       1.0  0.12552  0.06019  0.48107  1.0000
  O   O36       1.0  0.62552  0.56019  0.98107  1.0000
  O   O37       1.0  0.02529  0.06018  0.48135  1.0000
  O   O38       1.0  0.52529  0.56018  0.98135  1.0000
  O   O39       1.0  0.06774  0.06021  0.59716  1.0000
  O   O40       1.0  0.56774  0.56021  0.09716  1.0000
  O   O41       1.0  0.05851  0.96059  0.51454  1.0000
  O   O42       1.0  0.55851  0.46059  0.01454  1.0000
  O   O43       1.0  0.15875  0.96060  0.51426  1.0000
  O   O44       1.0  0.65875  0.46060  0.01426  1.0000
  O   O45       1.0  0.00072  0.96060  0.63064  1.0000
  O   O46       1.0  0.50072  0.46060  0.13064  1.0000
  Zn  Zn9       1.0  0.08501  0.94479  0.57772  1.0000
  Zn  Zn10      1.0  0.58501  0.44479  0.07772  1.0000
  Zn  Zn11      1.0  0.04124  0.07600  0.53398  1.0000
  Zn  Zn12      1.0  0.54124  0.57600  0.03398  1.0000
  O   O47       1.0  0.10096  0.96062  0.63036  1.0000
  O   O48       1.0  0.60096  0.46062  0.13036  1.0000
  N   N11       1.0  0.01136  0.16556  0.50413  1.0000
  N   N12       1.0  0.51136  0.66556  0.00413  1.0000
  N   N13       1.0  0.11512  0.43312  0.02959  1.0000
  N   N14       1.0  0.61512  0.93312  0.52959  1.0000
  O   O49       1.0  0.10499  0.28575  0.23453  1.0000
  O   O50       1.0  0.60499  0.78575  0.73453  1.0000
  O   O51       1.0  0.98863  0.44382  0.23454  1.0000
  O   O52       1.0  0.48863  0.94382  0.73454  1.0000
  O   O53       1.0  0.98890  0.34360  0.23450  1.0000
  O   O54       1.0  0.48890  0.84361  0.73450  1.0000
  O   O55       1.0  0.10472  0.38597  0.23457  1.0000
  O   O56       1.0  0.60472  0.88597  0.73457  1.0000
  O   O57       1.0  0.02209  0.37681  0.13491  1.0000
  O   O58       1.0  0.52209  0.87681  0.63491  1.0000
  O   O59       1.0  0.02182  0.47703  0.13495  1.0000
  O   O60       1.0  0.52182  0.97703  0.63495  1.0000
  O   O61       1.0  0.13818  0.31896  0.13494  1.0000
  O   O62       1.0  0.63818  0.81896  0.63494  1.0000
  Zn  Zn13      1.0  0.08527  0.40326  0.11914  1.0000
  Zn  Zn14      1.0  0.58527  0.90326  0.61914  1.0000
  Zn  Zn15      1.0  0.04154  0.35952  0.25034  1.0000
  Zn  Zn16      1.0  0.54154  0.85952  0.75034  1.0000
  O   O63       1.0  0.13791  0.41917  0.13498  1.0000
  O   O64       1.0  0.63791  0.91917  0.63498  1.0000
  N   N15       1.0  0.01169  0.32966  0.33989  1.0000
  N   N16       1.0  0.51169  0.82966  0.83989  1.0000
  C   C69       1.0  0.03809  0.48043  0.48187  1.0000
  C   C70       1.0  0.53809  0.98043  0.98187  1.0000
  C   C71       1.0  0.16210  0.35650  0.48179  1.0000
  C   C72       1.0  0.66210  0.85650  0.98179  1.0000
  C   C73       1.0  0.08820  0.28241  0.62989  1.0000
  C   C74       1.0  0.58820  0.78241  0.12989  1.0000
  C   C75       1.0  0.96418  0.40635  0.62998  1.0000
  C   C76       1.0  0.46418  0.90635  0.12998  1.0000
  C   C77       1.0  0.69228  0.30730  0.65455  1.0000
  C   C78       1.0  0.19228  0.80730  0.15454  1.0000
  C   C79       1.0  0.69220  0.30763  0.53043  1.0000
  C   C80       1.0  0.19220  0.80763  0.03044  1.0000
  C   C81       1.0  0.69206  0.45575  0.45672  1.0000
  C   C82       1.0  0.19206  0.95575  0.95672  1.0000
  C   C83       1.0  0.69214  0.45542  0.58083  1.0000
  C   C84       1.0  0.19214  0.95542  0.08082  1.0000
  C   C85       1.0  0.16200  0.01052  0.48160  1.0000
  C   C86       1.0  0.66200  0.51052  0.98160  1.0000
  C   C87       1.0  0.03791  0.01038  0.48198  1.0000
  C   C88       1.0  0.53791  0.51038  0.98198  1.0000
  C   C89       1.0  0.96420  0.01040  0.63006  1.0000
  C   C90       1.0  0.46421  0.51040  0.13007  1.0000
  C   C91       1.0  0.08833  0.01041  0.62972  1.0000
  C   C92       1.0  0.58833  0.51042  0.12972  1.0000
  C   C93       1.0  0.98920  0.48034  0.18475  1.0000
  C   C94       1.0  0.48920  0.98034  0.68475  1.0000
  C   C95       1.0  0.98954  0.35624  0.18468  1.0000
  C   C96       1.0  0.48954  0.85624  0.68468  1.0000
  C   C97       1.0  0.13761  0.28244  0.18473  1.0000
  C   C98       1.0  0.63761  0.78244  0.68473  1.0000
  C   C99       1.0  0.13728  0.40655  0.18478  1.0000
  C   C100      1.0  0.63728  0.90655  0.68478  1.0000
  H   H1        1.0  0.02390  0.48118  0.02469  1.0000
  H   H2        1.0  0.52390  0.98119  0.52469  1.0000
  N   N17       1.0  0.94081  0.54047  0.18475  1.0000
  N   N18       1.0  0.44081  0.04047  0.68475  1.0000
  H   H3        1.0  0.92923  0.55954  0.14783  1.0000
  H   H4        1.0  0.42923  0.05954  0.64783  1.0000
  H   H5        1.0  0.95619  0.56719  0.18479  1.0000
  H   H6        1.0  0.45619  0.06719  0.68479  1.0000
  H   H7        1.0  0.91877  0.41530  0.66646  1.0000
  H   H8        1.0  0.41877  0.91530  0.16646  1.0000
  H   H9        1.0  0.20729  0.01080  0.44497  1.0000
  H   H10       1.0  0.70729  0.51080  0.94497  1.0000
  H   H11       1.0  0.69232  0.27076  0.69993  1.0000
  H   H12       1.0  0.19232  0.77076  0.19993  1.0000
  N   N19       1.0  0.05097  0.52866  0.90269  1.0000
  N   N20       1.0  0.55097  0.02866  0.40269  1.0000
  H   H13       1.0  0.00877  0.53508  0.93207  1.0000
  H   H14       1.0  0.50877  0.03508  0.43207  1.0000
  H   H15       1.0  0.05738  0.50833  0.87667  1.0000
  H   H16       1.0  0.55738  0.00832  0.37667  1.0000
  H   H17       1.0  0.53211  0.34279  0.64417  1.0000
  H   H18       1.0  0.03211  0.84279  0.14417  1.0000
  H   H19       1.0  0.09722  0.23698  0.66634  1.0000
  H   H20       1.0  0.59722  0.73698  0.16634  1.0000
  N   N21       1.0  0.90410  0.01039  0.67847  1.0000
  N   N22       1.0  0.40410  0.51039  0.17847  1.0000
  H   H21       1.0  0.88503  0.04731  0.69005  1.0000
  H   H22       1.0  0.38503  0.54731  0.19005  1.0000
  H   H23       1.0  0.90972  0.97345  0.71462  1.0000
  H   H24       1.0  0.40972  0.47345  0.21462  1.0000
  H   H25       1.0  0.09742  0.01042  0.66611  1.0000
  H   H26       1.0  0.59742  0.51042  0.16610  1.0000
  H   H27       1.0  0.95317  0.34719  0.18461  1.0000
  H   H28       1.0  0.45317  0.84719  0.68461  1.0000
  H   H29       1.0  0.02883  0.01038  0.44560  1.0000
  H   H30       1.0  0.52882  0.51038  0.94560  1.0000
  N   N23       1.0  0.22225  0.34465  0.43345  1.0000
  N   N24       1.0  0.72225  0.84465  0.93345  1.0000
  H   H31       1.0  0.21672  0.34943  0.39726  1.0000
  H   H32       1.0  0.71672  0.84943  0.89726  1.0000
  H   H33       1.0  0.24894  0.30251  0.44892  1.0000
  H   H34       1.0  0.74894  0.80251  0.94892  1.0000
  N   N25       1.0  0.22042  0.37880  0.03291  1.0000
  N   N26       1.0  0.72042  0.87880  0.53291  1.0000
  H   H35       1.0  0.26262  0.37238  0.00353  1.0000
  H   H36       1.0  0.76262  0.87238  0.50353  1.0000
  H   H37       1.0  0.21400  0.33887  0.05891  1.0000
  H   H38       1.0  0.71400  0.83887  0.55891  1.0000
  N   N27       1.0  0.26377  0.42224  0.90262  1.0000
  N   N28       1.0  0.76378  0.92224  0.40262  1.0000
  H   H39       1.0  0.28643  0.39624  0.93197  1.0000
  H   H40       1.0  0.78643  0.89624  0.43197  1.0000
  H   H41       1.0  0.27466  0.45994  0.87661  1.0000
  H   H42       1.0  0.77466  0.95994  0.37661  1.0000
  N   N29       1.0  0.18548  0.41855  0.18480  1.0000
  N   N30       1.0  0.68548  0.91855  0.68480  1.0000
  H   H43       1.0  0.22170  0.41380  0.14789  1.0000
  H   H44       1.0  0.72169  0.91380  0.64789  1.0000
  H   H45       1.0  0.19704  0.38918  0.22175  1.0000
  H   H46       1.0  0.69704  0.88918  0.72175  1.0000
  N   N31       1.0  0.69213  0.50363  0.59284  1.0000
  N   N32       1.0  0.19213  0.00363  0.09284  1.0000
  H   H47       1.0  0.65523  0.51354  0.62759  1.0000
  H   H48       1.0  0.15523  0.01354  0.12759  1.0000
  H   H49       1.0  0.69211  0.54067  0.55604  1.0000
  H   H50       1.0  0.19211  0.04067  0.05604  1.0000
  N   N33       1.0  0.18600  0.22230  0.18475  1.0000
  N   N34       1.0  0.68600  0.72230  0.68474  1.0000
  H   H51       1.0  0.17065  0.19554  0.18473  1.0000
  H   H52       1.0  0.67065  0.69554  0.68473  1.0000
  H   H53       1.0  0.19755  0.20329  0.22168  1.0000
  H   H54       1.0  0.69755  0.70329  0.72168  1.0000
  H   H55       1.0  0.06162  0.51914  0.69353  1.0000
  H   H56       1.0  0.56163  0.01914  0.19353  1.0000
  N   N35       1.0  0.02614  0.54061  0.43359  1.0000
  N   N36       1.0  0.52614  0.04061  0.93359  1.0000
  H   H57       1.0  0.03090  0.53512  0.39739  1.0000
  H   H58       1.0  0.53090  0.03512  0.89739  1.0000
  H   H59       1.0  0.05553  0.55972  0.42202  1.0000
  H   H60       1.0  0.55553  0.05972  0.92202  1.0000
  N   N37       1.0  0.00742  0.48523  0.65963  1.0000
  N   N38       1.0  0.50742  0.98523  0.15963  1.0000
  H   H61       1.0  0.98479  0.51122  0.68564  1.0000
  H   H62       1.0  0.48479  0.01122  0.18564  1.0000
  H   H63       1.0  0.99654  0.44753  0.68221  1.0000
  H   H64       1.0  0.49654  0.94753  0.18221  1.0000
  H   H65       1.0  0.69201  0.49229  0.41134  1.0000
  H   H66       1.0  0.19200  0.99229  0.91134  1.0000
  N   N39       1.0  0.69223  0.25941  0.51841  1.0000
  N   N40       1.0  0.19223  0.75941  0.01841  1.0000
  H   H67       1.0  0.69220  0.27494  0.47627  1.0000
  H   H68       1.0  0.19220  0.77494  0.97627  1.0000
  H   H69       1.0  0.65534  0.24779  0.54782  1.0000
  H   H70       1.0  0.15534  0.74779  0.04782  1.0000
  H   H71       1.0  0.24732  0.42630  0.60061  1.0000
  H   H72       1.0  0.74733  0.92630  0.10061  1.0000
  N   N41       1.0  0.22017  0.37887  0.55319  1.0000
  N   N42       1.0  0.72017  0.87887  0.05320  1.0000
  H   H73       1.0  0.26238  0.37269  0.54652  1.0000
  H   H74       1.0  0.76238  0.87269  0.04652  1.0000
  H   H75       1.0  0.21351  0.39909  0.51338  1.0000
  H   H76       1.0  0.71351  0.89909  0.01338  1.0000
  N   N43       1.0  0.41012  0.37006  0.68998  1.0000
  N   N44       1.0  0.91012  0.87006  0.18998  1.0000
  H   H77       1.0  0.43949  0.32815  0.69243  1.0000
  H   H78       1.0  0.93949  0.82815  0.19243  1.0000
  H   H79       1.0  0.38410  0.38125  0.66728  1.0000
  H   H80       1.0  0.88410  0.88125  0.16728  1.0000
  H   H81       1.0  0.53208  0.52679  0.57401  1.0000
  H   H82       1.0  0.03208  0.02679  0.07401  1.0000
  H   H83       1.0  0.20084  0.73660  0.55424  1.0000
  H   H84       1.0  0.70084  0.23660  0.05424  1.0000
  N   N45       1.0  0.41008  0.58087  0.60959  1.0000
  N   N46       1.0  0.91008  0.08087  0.10959  1.0000
  H   H85       1.0  0.43944  0.60320  0.58754  1.0000
  H   H86       1.0  0.93944  0.10320  0.08754  1.0000
  H   H87       1.0  0.38408  0.58702  0.64964  1.0000
  H   H88       1.0  0.88408  0.08702  0.14964  1.0000
  H   H89       1.0  0.07013  0.85029  0.70209  1.0000
  H   H90       1.0  0.57013  0.35029  0.20209  1.0000
  N   N47       1.0  0.16689  0.85862  0.50008  1.0000
  N   N48       1.0  0.66689  0.35862  0.00008  1.0000
  H   H91       1.0  0.15156  0.84772  0.48134  1.0000
  H   H92       1.0  0.65156  0.34772  0.98134  1.0000
  H   H93       1.0  0.21185  0.84771  0.48137  1.0000
  H   H94       1.0  0.71185  0.34771  0.98137  1.0000
  N   N49       1.0  0.10408  0.72828  0.75626  1.0000
  N   N50       1.0  0.60408  0.22828  0.25626  1.0000
  H   H95       1.0  0.07808  0.75765  0.77890  1.0000
  H   H96       1.0  0.57808  0.25765  0.27890  1.0000
  H   H97       1.0  0.14179  0.70227  0.76714  1.0000
  H   H98       1.0  0.64179  0.20227  0.26714  1.0000
