data_image0
_chemical_formula_structural       Zn16O52C224H4F8H4F8H4F8H4F8H4F12H4F4H8F12H4F4H12F8H8
_chemical_formula_sum              "Zn16 O52 C224 H56 F72"
_cell_length_a       21.3954
_cell_length_b       19.8054
_cell_length_c       21.3954
_cell_angle_alpha    89.9709
_cell_angle_beta     89.957
_cell_angle_gamma    90.0423

_space_group_name_H-M_alt    "P 1"
_space_group_IT_number       1

loop_
  _space_group_symop_operation_xyz
  'x, y, z'

loop_
  _atom_site_type_symbol
  _atom_site_label
  _atom_site_symmetry_multiplicity
  _atom_site_fract_x
  _atom_site_fract_y
  _atom_site_fract_z
  _atom_site_occupancy
  Zn  Zn1       1.0  0.95787  0.73081  0.64542  1.0000
  Zn  Zn2       1.0  0.20787  0.98081  0.89542  1.0000
  Zn  Zn3       1.0  0.45787  0.23081  0.14542  1.0000
  Zn  Zn4       1.0  0.70787  0.48081  0.39542  1.0000
  Zn  Zn5       1.0  0.95778  0.61762  0.75020  1.0000
  Zn  Zn6       1.0  0.20778  0.86762  0.00020  1.0000
  Zn  Zn7       1.0  0.45778  0.11762  0.25020  1.0000
  Zn  Zn8       1.0  0.70778  0.36762  0.50020  1.0000
  Zn  Zn9       1.0  0.85309  0.73076  0.75022  1.0000
  Zn  Zn10      1.0  0.10309  0.98076  0.00022  1.0000
  Zn  Zn11      1.0  0.35309  0.23076  0.25022  1.0000
  Zn  Zn12      1.0  0.60309  0.48076  0.50022  1.0000
  Zn  Zn13      1.0  0.85306  0.61762  0.64550  1.0000
  Zn  Zn14      1.0  0.10306  0.86762  0.89550  1.0000
  Zn  Zn15      1.0  0.35306  0.11762  0.14550  1.0000
  Zn  Zn16      1.0  0.60306  0.36762  0.39550  1.0000
  O   O1        1.0  0.90545  0.67420  0.69783  1.0000
  O   O2        1.0  0.15545  0.92420  0.94783  1.0000
  O   O3        1.0  0.40545  0.17420  0.19783  1.0000
  O   O4        1.0  0.65545  0.42420  0.44783  1.0000
  O   O5        1.0  0.04554  0.71581  0.65928  1.0000
  O   O6        1.0  0.29554  0.96581  0.90928  1.0000
  O   O7        1.0  0.54554  0.21581  0.15928  1.0000
  O   O8        1.0  0.79554  0.46581  0.40928  1.0000
  O   O9        1.0  0.94387  0.63260  0.83788  1.0000
  O   O10       1.0  0.19387  0.88260  0.08788  1.0000
  O   O11       1.0  0.44387  0.13260  0.33788  1.0000
  O   O12       1.0  0.69387  0.38260  0.58788  1.0000
  O   O13       1.0  0.86704  0.82548  0.73629  1.0000
  O   O14       1.0  0.11704  0.07548  0.98629  1.0000
  O   O15       1.0  0.36704  0.32548  0.23629  1.0000
  O   O16       1.0  0.61704  0.57548  0.48629  1.0000
  O   O17       1.0  0.04547  0.63265  0.73626  1.0000
  O   O18       1.0  0.29547  0.88265  0.98626  1.0000
  O   O19       1.0  0.54547  0.13265  0.23626  1.0000
  O   O20       1.0  0.79547  0.38265  0.48626  1.0000
  O   O21       1.0  0.94402  0.82552  0.65930  1.0000
  O   O22       1.0  0.19402  0.07552  0.90930  1.0000
  O   O23       1.0  0.44402  0.32552  0.15930  1.0000
  O   O24       1.0  0.69402  0.57552  0.40930  1.0000
  O   O25       1.0  0.86695  0.71573  0.83790  1.0000
  O   O26       1.0  0.11695  0.96573  0.08790  1.0000
  O   O27       1.0  0.36695  0.21573  0.33790  1.0000
  O   O28       1.0  0.61695  0.46573  0.58789  1.0000
  O   O29       1.0  0.76541  0.71573  0.73637  1.0000
  O   O30       1.0  0.01541  0.96573  0.98637  1.0000
  O   O31       1.0  0.26541  0.21573  0.23637  1.0000
  O   O32       1.0  0.51541  0.46573  0.48637  1.0000
  O   O33       1.0  0.86699  0.63266  0.55781  1.0000
  O   O34       1.0  0.11699  0.88266  0.80781  1.0000
  O   O35       1.0  0.36699  0.13266  0.05781  1.0000
  O   O36       1.0  0.61699  0.38266  0.30781  1.0000
  O   O37       1.0  0.76539  0.63261  0.65943  1.0000
  O   O38       1.0  0.01539  0.88261  0.90943  1.0000
  O   O39       1.0  0.26539  0.13261  0.15943  1.0000
  O   O40       1.0  0.51539  0.38261  0.40943  1.0000
  O   O41       1.0  0.94400  0.71581  0.55775  1.0000
  O   O42       1.0  0.19400  0.96581  0.80775  1.0000
  O   O43       1.0  0.44400  0.21582  0.05775  1.0000
  O   O44       1.0  0.69400  0.46581  0.30775  1.0000
  O   O45       1.0  0.94385  0.52290  0.73633  1.0000
  O   O46       1.0  0.19385  0.77290  0.98634  1.0000
  O   O47       1.0  0.44385  0.02290  0.23633  1.0000
  O   O48       1.0  0.69385  0.27290  0.48634  1.0000
  O   O49       1.0  0.86691  0.52291  0.65941  1.0000
  O   O50       1.0  0.11691  0.77291  0.90941  1.0000
  O   O51       1.0  0.36691  0.02291  0.15941  1.0000
  O   O52       1.0  0.61691  0.27291  0.40941  1.0000
  C   C1        1.0  0.74267  0.67417  0.69791  1.0000
  C   C2        1.0  0.99267  0.92417  0.94791  1.0000
  C   C3        1.0  0.24266  0.17416  0.19791  1.0000
  C   C4        1.0  0.49266  0.42417  0.44791  1.0000
  C   C5        1.0  0.67302  0.67413  0.69792  1.0000
  C   C6        1.0  0.92302  0.92413  0.94792  1.0000
  C   C7        1.0  0.17302  0.17413  0.19792  1.0000
  C   C8        1.0  0.42302  0.42413  0.44792  1.0000
  C   C9        1.0  0.64032  0.63080  0.65792  1.0000
  C   C10       1.0  0.89032  0.88080  0.90792  1.0000
  C   C11       1.0  0.14032  0.13080  0.15792  1.0000
  C   C12       1.0  0.39032  0.38080  0.40792  1.0000
  C   C13       1.0  0.57488  0.63081  0.65789  1.0000
  C   C14       1.0  0.82488  0.88081  0.90789  1.0000
  C   C15       1.0  0.07488  0.13081  0.15789  1.0000
  C   C16       1.0  0.32488  0.38081  0.40789  1.0000
  C   C17       1.0  0.54216  0.67416  0.69788  1.0000
  C   C18       1.0  0.79216  0.92416  0.94788  1.0000
  C   C19       1.0  0.04215  0.17416  0.19788  1.0000
  C   C20       1.0  0.29215  0.42416  0.44788  1.0000
  C   C21       1.0  0.57487  0.71751  0.73788  1.0000
  C   C22       1.0  0.82487  0.96751  0.98788  1.0000
  C   C23       1.0  0.07487  0.21751  0.23788  1.0000
  C   C24       1.0  0.32487  0.46751  0.48788  1.0000
  C   C25       1.0  0.64030  0.71749  0.73791  1.0000
  C   C26       1.0  0.89030  0.96749  0.98791  1.0000
  C   C27       1.0  0.14030  0.21749  0.23791  1.0000
  C   C28       1.0  0.39030  0.46749  0.48791  1.0000
  C   C29       1.0  0.43843  0.67960  0.75428  1.0000
  C   C30       1.0  0.68843  0.92960  0.00428  1.0000
  C   C31       1.0  0.93843  0.17960  0.25428  1.0000
  C   C32       1.0  0.18843  0.42960  0.50428  1.0000
  C   C33       1.0  0.37300  0.67961  0.75426  1.0000
  C   C34       1.0  0.62300  0.92961  0.00426  1.0000
  C   C35       1.0  0.87300  0.17961  0.25426  1.0000
  C   C36       1.0  0.12300  0.42961  0.50426  1.0000
  C   C37       1.0  0.34033  0.67420  0.69781  1.0000
  C   C38       1.0  0.59034  0.92420  0.94781  1.0000
  C   C39       1.0  0.84034  0.17420  0.19781  1.0000
  C   C40       1.0  0.09034  0.42420  0.44781  1.0000
  C   C41       1.0  0.37311  0.66878  0.64138  1.0000
  C   C42       1.0  0.62311  0.91878  0.89138  1.0000
  C   C43       1.0  0.87311  0.16878  0.14138  1.0000
  C   C44       1.0  0.12311  0.41878  0.39138  1.0000
  C   C45       1.0  0.43855  0.66876  0.64140  1.0000
  C   C46       1.0  0.68855  0.91876  0.89140  1.0000
  C   C47       1.0  0.93855  0.16876  0.14140  1.0000
  C   C48       1.0  0.18855  0.41876  0.39140  1.0000
  C   C49       1.0  0.47120  0.67418  0.69786  1.0000
  C   C50       1.0  0.72120  0.92418  0.94786  1.0000
  C   C51       1.0  0.97120  0.17418  0.19786  1.0000
  C   C52       1.0  0.22120  0.42418  0.44786  1.0000
  C   C53       1.0  0.23668  0.63088  0.65777  1.0000
  C   C54       1.0  0.48668  0.88088  0.90777  1.0000
  C   C55       1.0  0.73668  0.13088  0.15777  1.0000
  C   C56       1.0  0.98668  0.38088  0.40777  1.0000
  C   C57       1.0  0.17124  0.63090  0.65774  1.0000
  C   C58       1.0  0.42124  0.88090  0.90774  1.0000
  C   C59       1.0  0.67124  0.13090  0.15774  1.0000
  C   C60       1.0  0.92124  0.38090  0.40774  1.0000
  C   C61       1.0  0.17123  0.71759  0.73774  1.0000
  C   C62       1.0  0.42123  0.96759  0.98774  1.0000
  C   C63       1.0  0.67123  0.21759  0.23774  1.0000
  C   C64       1.0  0.92123  0.46759  0.48774  1.0000
  C   C65       1.0  0.23666  0.71757  0.73776  1.0000
  C   C66       1.0  0.48666  0.96757  0.98776  1.0000
  C   C67       1.0  0.73666  0.21757  0.23776  1.0000
  C   C68       1.0  0.98666  0.46757  0.48776  1.0000
  C   C69       1.0  0.26938  0.67422  0.69778  1.0000
  C   C70       1.0  0.51938  0.92422  0.94778  1.0000
  C   C71       1.0  0.76938  0.17422  0.19778  1.0000
  C   C72       1.0  0.01938  0.42422  0.44778  1.0000
  C   C73       1.0  0.90538  0.49834  0.69786  1.0000
  C   C74       1.0  0.15538  0.74835  0.94786  1.0000
  C   C75       1.0  0.40538  0.99834  0.19786  1.0000
  C   C76       1.0  0.65538  0.24834  0.44786  1.0000
  C   C77       1.0  0.90541  0.42311  0.69786  1.0000
  C   C78       1.0  0.15541  0.67311  0.94786  1.0000
  C   C79       1.0  0.40541  0.92311  0.19786  1.0000
  C   C80       1.0  0.65541  0.17311  0.44786  1.0000
  C   C81       1.0  0.94551  0.38779  0.73787  1.0000
  C   C82       1.0  0.19551  0.63779  0.98787  1.0000
  C   C83       1.0  0.44551  0.88779  0.23787  1.0000
  C   C84       1.0  0.69551  0.13779  0.48787  1.0000
  C   C85       1.0  0.94554  0.31710  0.73786  1.0000
  C   C86       1.0  0.19554  0.56710  0.98786  1.0000
  C   C87       1.0  0.44554  0.81710  0.23786  1.0000
  C   C88       1.0  0.69554  0.06710  0.48786  1.0000
  C   C89       1.0  0.90546  0.28174  0.69783  1.0000
  C   C90       1.0  0.15546  0.53174  0.94783  1.0000
  C   C91       1.0  0.40546  0.78174  0.19783  1.0000
  C   C92       1.0  0.65546  0.03174  0.44783  1.0000
  C   C93       1.0  0.86536  0.31707  0.65781  1.0000
  C   C94       1.0  0.11536  0.56707  0.90781  1.0000
  C   C95       1.0  0.36536  0.81707  0.15781  1.0000
  C   C96       1.0  0.61536  0.06707  0.40781  1.0000
  C   C97       1.0  0.86533  0.38775  0.65782  1.0000
  C   C98       1.0  0.11533  0.63775  0.90782  1.0000
  C   C99       1.0  0.36533  0.88775  0.15782  1.0000
  C   C100      1.0  0.61533  0.13775  0.40782  1.0000
  C   C101      1.0  0.86545  0.03199  0.65777  1.0000
  C   C102      1.0  0.11545  0.28199  0.90777  1.0000
  C   C103      1.0  0.36545  0.53199  0.15777  1.0000
  C   C104      1.0  0.61545  0.78199  0.40777  1.0000
  C   C105      1.0  0.86547  0.96130  0.65776  1.0000
  C   C106      1.0  0.11547  0.21130  0.90776  1.0000
  C   C107      1.0  0.36547  0.46130  0.15776  1.0000
  C   C108      1.0  0.61547  0.71130  0.40776  1.0000
  C   C109      1.0  0.94565  0.96134  0.73780  1.0000
  C   C110      1.0  0.19565  0.21134  0.98780  1.0000
  C   C111      1.0  0.44565  0.46134  0.23780  1.0000
  C   C112      1.0  0.69565  0.71134  0.48780  1.0000
  C   C113      1.0  0.94563  0.03203  0.73781  1.0000
  C   C114      1.0  0.19563  0.28203  0.98781  1.0000
  C   C115      1.0  0.44563  0.53203  0.23781  1.0000
  C   C116      1.0  0.69563  0.78203  0.48781  1.0000
  C   C117      1.0  0.90553  0.06735  0.69779  1.0000
  C   C118      1.0  0.15553  0.31735  0.94779  1.0000
  C   C119      1.0  0.40553  0.56735  0.19779  1.0000
  C   C120      1.0  0.65553  0.81735  0.44779  1.0000
  C   C121      1.0  0.90550  0.14400  0.69780  1.0000
  C   C122      1.0  0.15550  0.39400  0.94780  1.0000
  C   C123      1.0  0.40550  0.64400  0.19780  1.0000
  C   C124      1.0  0.65550  0.89400  0.44780  1.0000
  C   C125      1.0  0.90548  0.20509  0.69782  1.0000
  C   C126      1.0  0.15548  0.45509  0.94782  1.0000
  C   C127      1.0  0.40548  0.70509  0.19782  1.0000
  C   C128      1.0  0.65548  0.95509  0.44782  1.0000
  C   C129      1.0  0.06888  0.67424  0.69776  1.0000
  C   C130      1.0  0.31888  0.92424  0.94776  1.0000
  C   C131      1.0  0.56888  0.17424  0.19776  1.0000
  C   C132      1.0  0.81888  0.42424  0.44776  1.0000
  C   C133      1.0  0.13852  0.67425  0.69773  1.0000
  C   C134      1.0  0.38852  0.92425  0.94773  1.0000
  C   C135      1.0  0.63852  0.17425  0.19773  1.0000
  C   C136      1.0  0.88852  0.42425  0.44773  1.0000
  C   C137      1.0  0.90550  0.67424  0.53441  1.0000
  C   C138      1.0  0.15550  0.92424  0.78441  1.0000
  C   C139      1.0  0.40550  0.17424  0.03441  1.0000
  C   C140      1.0  0.65550  0.42424  0.28441  1.0000
  C   C141      1.0  0.90552  0.67426  0.46477  1.0000
  C   C142      1.0  0.15552  0.92426  0.71477  1.0000
  C   C143      1.0  0.40552  0.17426  0.96477  1.0000
  C   C144      1.0  0.65552  0.42426  0.21477  1.0000
  C   C145      1.0  0.90554  0.85074  0.69779  1.0000
  C   C146      1.0  0.15554  0.10074  0.94779  1.0000
  C   C147      1.0  0.40554  0.35074  0.19779  1.0000
  C   C148      1.0  0.65554  0.60074  0.44779  1.0000
  C   C149      1.0  0.90558  0.92598  0.69777  1.0000
  C   C150      1.0  0.15558  0.17598  0.94777  1.0000
  C   C151      1.0  0.40558  0.42598  0.19777  1.0000
  C   C152      1.0  0.65558  0.67598  0.44777  1.0000
  C   C153      1.0  0.86548  0.71755  0.43207  1.0000
  C   C154      1.0  0.11548  0.96755  0.68207  1.0000
  C   C155      1.0  0.36548  0.21755  0.93207  1.0000
  C   C156      1.0  0.61548  0.46755  0.18207  1.0000
  C   C157      1.0  0.86548  0.71756  0.36664  1.0000
  C   C158      1.0  0.11548  0.96756  0.61664  1.0000
  C   C159      1.0  0.36548  0.21756  0.86664  1.0000
  C   C160      1.0  0.61548  0.46756  0.11664  1.0000
  C   C161      1.0  0.90553  0.67429  0.33390  1.0000
  C   C162      1.0  0.15553  0.92429  0.58390  1.0000
  C   C163      1.0  0.40553  0.17429  0.83390  1.0000
  C   C164      1.0  0.65553  0.42429  0.08390  1.0000
  C   C165      1.0  0.94557  0.63100  0.36660  1.0000
  C   C166      1.0  0.19557  0.88100  0.61661  1.0000
  C   C167      1.0  0.44557  0.13100  0.86660  1.0000
  C   C168      1.0  0.69557  0.38100  0.11661  1.0000
  C   C169      1.0  0.94557  0.63098  0.43204  1.0000
  C   C170      1.0  0.19557  0.88098  0.68204  1.0000
  C   C171      1.0  0.44557  0.13098  0.93204  1.0000
  C   C172      1.0  0.69557  0.38098  0.18204  1.0000
  C   C173      1.0  0.96198  0.66899  0.23020  1.0000
  C   C174      1.0  0.21198  0.91899  0.48020  1.0000
  C   C175      1.0  0.46198  0.16899  0.73020  1.0000
  C   C176      1.0  0.71198  0.41899  0.98020  1.0000
  C   C177      1.0  0.96199  0.66901  0.16476  1.0000
  C   C178      1.0  0.21199  0.91901  0.41476  1.0000
  C   C179      1.0  0.46199  0.16901  0.66476  1.0000
  C   C180      1.0  0.71199  0.41901  0.91476  1.0000
  C   C181      1.0  0.90554  0.67434  0.13208  1.0000
  C   C182      1.0  0.15554  0.92434  0.38208  1.0000
  C   C183      1.0  0.40554  0.17434  0.63208  1.0000
  C   C184      1.0  0.65554  0.42434  0.88208  1.0000
  C   C185      1.0  0.84909  0.67966  0.16484  1.0000
  C   C186      1.0  0.09909  0.92966  0.41484  1.0000
  C   C187      1.0  0.34909  0.17966  0.66484  1.0000
  C   C188      1.0  0.59909  0.42966  0.91484  1.0000
  C   C189      1.0  0.84908  0.67965  0.23027  1.0000
  C   C190      1.0  0.09908  0.92965  0.48027  1.0000
  C   C191      1.0  0.34908  0.17965  0.73027  1.0000
  C   C192      1.0  0.59908  0.42965  0.98027  1.0000
  C   C193      1.0  0.90554  0.67431  0.26295  1.0000
  C   C194      1.0  0.15554  0.92431  0.51295  1.0000
  C   C195      1.0  0.40554  0.17431  0.76295  1.0000
  C   C196      1.0  0.65554  0.42431  0.01295  1.0000
  C   C197      1.0  0.86549  0.71764  0.02843  1.0000
  C   C198      1.0  0.11549  0.96764  0.27843  1.0000
  C   C199      1.0  0.36549  0.21764  0.52843  1.0000
  C   C200      1.0  0.61549  0.46764  0.77843  1.0000
  C   C201      1.0  0.86549  0.71765  0.96300  1.0000
  C   C202      1.0  0.11549  0.96765  0.21299  1.0000
  C   C203      1.0  0.36549  0.21765  0.46299  1.0000
  C   C204      1.0  0.61549  0.46765  0.71300  1.0000
  C   C205      1.0  0.94559  0.63109  0.96296  1.0000
  C   C206      1.0  0.19559  0.88109  0.21296  1.0000
  C   C207      1.0  0.44559  0.13109  0.46296  1.0000
  C   C208      1.0  0.69559  0.38109  0.71296  1.0000
  C   C209      1.0  0.94559  0.63108  0.02840  1.0000
  C   C210      1.0  0.19559  0.88108  0.27840  1.0000
  C   C211      1.0  0.44559  0.13108  0.52840  1.0000
  C   C212      1.0  0.69559  0.38108  0.77840  1.0000
  C   C213      1.0  0.90554  0.67436  0.06113  1.0000
  C   C214      1.0  0.15554  0.92436  0.31113  1.0000
  C   C215      1.0  0.40554  0.17436  0.56113  1.0000
  C   C216      1.0  0.65554  0.42436  0.81113  1.0000
  C   C217      1.0  0.90544  0.67421  0.86062  1.0000
  C   C218      1.0  0.15544  0.92421  0.11062  1.0000
  C   C219      1.0  0.40544  0.17421  0.36062  1.0000
  C   C220      1.0  0.65544  0.42421  0.61062  1.0000
  C   C221      1.0  0.90554  0.67438  0.93026  1.0000
  C   C222      1.0  0.15554  0.92438  0.18026  1.0000
  C   C223      1.0  0.40554  0.17438  0.43026  1.0000
  C   C224      1.0  0.65554  0.42438  0.68026  1.0000
  H   H1        1.0  0.46523  0.66434  0.59545  1.0000
  H   H2        1.0  0.71523  0.91434  0.84545  1.0000
  H   H3        1.0  0.96523  0.16434  0.09545  1.0000
  H   H4        1.0  0.21523  0.41434  0.34545  1.0000
  F   F1        1.0  0.78901  0.68534  0.13006  1.0000
  F   F2        1.0  0.03901  0.93534  0.38006  1.0000
  F   F3        1.0  0.28901  0.18534  0.63006  1.0000
  F   F4        1.0  0.53901  0.43534  0.88006  1.0000
  F   F5        1.0  0.82266  0.42535  0.61523  1.0000
  F   F6        1.0  0.07265  0.67535  0.86523  1.0000
  F   F7        1.0  0.32265  0.92535  0.11523  1.0000
  F   F8        1.0  0.57265  0.17535  0.36523  1.0000
  H   H5        1.0  0.97830  0.93257  0.77038  1.0000
  H   H6        1.0  0.22830  0.18257  0.02038  1.0000
  H   H7        1.0  0.47831  0.43257  0.27038  1.0000
  H   H8        1.0  0.72830  0.68257  0.52038  1.0000
  F   F9        1.0  0.13643  0.58478  0.61516  1.0000
  F   F10       1.0  0.38643  0.83478  0.86516  1.0000
  F   F11       1.0  0.63643  0.08478  0.11516  1.0000
  F   F12       1.0  0.88643  0.33478  0.36516  1.0000
  F   F13       1.0  0.27150  0.58474  0.61522  1.0000
  F   F14       1.0  0.52150  0.83474  0.86522  1.0000
  F   F15       1.0  0.77150  0.08474  0.11522  1.0000
  F   F16       1.0  0.02150  0.33474  0.36522  1.0000
  H   H9        1.0  0.54825  0.59552  0.62532  1.0000
  H   H10       1.0  0.79825  0.84552  0.87531  1.0000
  H   H11       1.0  0.04825  0.09552  0.12532  1.0000
  H   H12       1.0  0.29825  0.34552  0.37531  1.0000
  F   F17       1.0  0.98822  0.27951  0.78044  1.0000
  F   F18       1.0  0.23822  0.52951  0.03044  1.0000
  F   F19       1.0  0.48822  0.77951  0.28044  1.0000
  F   F20       1.0  0.73822  0.02951  0.53044  1.0000
  F   F21       1.0  0.82277  0.06958  0.61518  1.0000
  F   F22       1.0  0.07277  0.31958  0.86517  1.0000
  F   F23       1.0  0.32277  0.56958  0.11518  1.0000
  F   F24       1.0  0.57277  0.81958  0.36518  1.0000
  H   H13       1.0  0.80312  0.68398  0.25694  1.0000
  H   H14       1.0  0.05312  0.93398  0.50694  1.0000
  H   H15       1.0  0.30312  0.18398  0.75694  1.0000
  H   H16       1.0  0.55312  0.43398  0.00694  1.0000
  F   F25       1.0  0.98819  0.58491  0.46684  1.0000
  F   F26       1.0  0.23819  0.83491  0.71684  1.0000
  F   F27       1.0  0.48819  0.08491  0.96684  1.0000
  F   F28       1.0  0.73819  0.33491  0.21684  1.0000
  F   F29       1.0  0.54004  0.76364  0.78044  1.0000
  F   F30       1.0  0.79004  0.01364  0.03044  1.0000
  F   F31       1.0  0.04004  0.26364  0.28044  1.0000
  F   F32       1.0  0.29004  0.51364  0.53044  1.0000
  H   H17       1.0  0.66693  0.75278  0.77048  1.0000
  H   H18       1.0  0.91693  0.00279  0.02048  1.0000
  H   H19       1.0  0.16693  0.25278  0.27048  1.0000
  H   H20       1.0  0.41693  0.50279  0.52048  1.0000
  F   F33       1.0  0.33812  0.68539  0.81432  1.0000
  F   F34       1.0  0.58812  0.93539  0.06432  1.0000
  F   F35       1.0  0.83812  0.18539  0.31432  1.0000
  F   F36       1.0  0.08812  0.43539  0.56432  1.0000
  F   F37       1.0  0.98820  0.58495  0.33176  1.0000
  F   F38       1.0  0.23819  0.83495  0.58176  1.0000
  F   F39       1.0  0.48819  0.08495  0.83176  1.0000
  F   F40       1.0  0.73820  0.33495  0.08176  1.0000
  F   F41       1.0  0.82282  0.92366  0.61516  1.0000
  F   F42       1.0  0.07282  0.17366  0.86516  1.0000
  F   F43       1.0  0.32282  0.42366  0.11516  1.0000
  F   F44       1.0  0.57282  0.67366  0.36516  1.0000
  H   H21       1.0  0.14458  0.75289  0.77029  1.0000
  H   H22       1.0  0.39458  0.00289  0.02030  1.0000
  H   H23       1.0  0.64458  0.25289  0.27030  1.0000
  H   H24       1.0  0.89458  0.50289  0.52029  1.0000
  F   F45       1.0  0.67514  0.58465  0.61536  1.0000
  F   F46       1.0  0.92514  0.83465  0.86537  1.0000
  F   F47       1.0  0.17514  0.08465  0.11537  1.0000
  F   F48       1.0  0.42514  0.33465  0.36536  1.0000
  H   H25       1.0  0.34652  0.66437  0.59541  1.0000
  H   H26       1.0  0.59652  0.91437  0.84541  1.0000
  H   H27       1.0  0.84652  0.16437  0.09541  1.0000
  H   H28       1.0  0.09652  0.41437  0.34541  1.0000
  H   H29       1.0  0.83288  0.75290  0.93637  1.0000
  H   H30       1.0  0.08288  0.00290  0.18637  1.0000
  H   H31       1.0  0.33288  0.25290  0.43637  1.0000
  H   H32       1.0  0.58288  0.50290  0.68637  1.0000
  F   F49       1.0  0.02207  0.66334  0.12991  1.0000
  F   F50       1.0  0.27207  0.91334  0.37990  1.0000
  F   F51       1.0  0.52207  0.16334  0.62990  1.0000
  F   F52       1.0  0.77207  0.41334  0.87991  1.0000
  F   F53       1.0  0.82271  0.27943  0.61521  1.0000
  F   F54       1.0  0.07271  0.52943  0.86521  1.0000
  F   F55       1.0  0.32271  0.77943  0.11521  1.0000
  F   F56       1.0  0.57271  0.02943  0.36521  1.0000
  F   F57       1.0  0.02206  0.66331  0.26497  1.0000
  F   F58       1.0  0.27206  0.91331  0.51497  1.0000
  F   F59       1.0  0.52206  0.16331  0.76497  1.0000
  F   F60       1.0  0.77206  0.41331  0.01497  1.0000
  H   H33       1.0  0.97814  0.41658  0.77047  1.0000
  H   H34       1.0  0.22814  0.66658  0.02047  1.0000
  H   H35       1.0  0.47814  0.91658  0.27047  1.0000
  H   H36       1.0  0.72814  0.16658  0.52046  1.0000
  F   F61       1.0  0.98821  0.58504  0.92813  1.0000
  F   F62       1.0  0.23821  0.83504  0.17813  1.0000
  F   F63       1.0  0.48821  0.08504  0.42813  1.0000
  F   F64       1.0  0.73821  0.33504  0.67813  1.0000
  H   H37       1.0  0.83287  0.75279  0.45872  1.0000
  H   H38       1.0  0.08287  0.00279  0.70872  1.0000
  H   H39       1.0  0.33287  0.25279  0.95872  1.0000
  H   H40       1.0  0.58287  0.50279  0.20872  1.0000
  H   H41       1.0  0.26329  0.75286  0.77034  1.0000
  H   H42       1.0  0.51329  0.00286  0.02034  1.0000
  H   H43       1.0  0.76329  0.25286  0.27034  1.0000
  H   H44       1.0  0.01329  0.50286  0.52034  1.0000
  H   H45       1.0  0.46502  0.68401  0.80026  1.0000
  H   H46       1.0  0.71502  0.93401  0.05026  1.0000
  H   H47       1.0  0.96502  0.18401  0.30026  1.0000
  H   H48       1.0  0.21502  0.43401  0.55026  1.0000
  F   F65       1.0  0.82287  0.76365  0.33183  1.0000
  F   F66       1.0  0.07287  0.01364  0.58183  1.0000
  F   F67       1.0  0.32287  0.26365  0.83183  1.0000
  F   F68       1.0  0.57287  0.51365  0.08183  1.0000
  F   F69       1.0  0.82287  0.76370  0.06327  1.0000
  F   F70       1.0  0.07287  0.01370  0.31327  1.0000
  F   F71       1.0  0.32287  0.26370  0.56327  1.0000
  F   F72       1.0  0.57287  0.51370  0.81327  1.0000
  H   H49       1.0  0.97826  0.06082  0.77040  1.0000
  H   H50       1.0  0.22826  0.31082  0.02040  1.0000
  H   H51       1.0  0.47826  0.56082  0.27040  1.0000
  H   H52       1.0  0.72826  0.81082  0.52040  1.0000
  H   H53       1.0  0.97820  0.59583  0.05502  1.0000
  H   H54       1.0  0.22819  0.84583  0.30502  1.0000
  H   H55       1.0  0.47819  0.09583  0.55502  1.0000
  H   H56       1.0  0.72819  0.34583  0.80502  1.0000
