data_image0
_chemical_formula_structural       ZrO12Zr5O20C56HCNCNCNCNCNCNCNH4CNH8CNCNH3CNCN
_chemical_formula_sum              "Zr6 O32 C68 H16 N12"
_cell_length_a       14.5604
_cell_length_b       14.5604
_cell_length_c       14.5604
_cell_angle_alpha    59.9967
_cell_angle_beta     90.0016
_cell_angle_gamma    60.0027

_space_group_name_H-M_alt    "P 1"
_space_group_IT_number       1

loop_
  _space_group_symop_operation_xyz
  'x, y, z'

loop_
  _atom_site_type_symbol
  _atom_site_label
  _atom_site_symmetry_multiplicity
  _atom_site_fract_x
  _atom_site_fract_y
  _atom_site_fract_z
  _atom_site_occupancy
  Zr  Zr1       1.0  0.88475  0.00534  0.87941  1.0000
  O   O1        1.0  0.73811  0.19695  0.73275  1.0000
  O   O2        1.0  0.92971  0.81373  0.92438  1.0000
  O   O3        1.0  0.92970  0.00534  0.73276  1.0000
  O   O4        1.0  0.73811  0.00533  0.07550  1.0000
  O   O5        1.0  0.08084  0.00535  0.73276  1.0000
  O   O6        1.0  0.73811  0.00533  0.92436  1.0000
  O   O7        1.0  0.08085  0.66259  0.07553  1.0000
  O   O8        1.0  0.73811  0.34809  0.73274  1.0000
  O   O9        1.0  0.06167  0.89255  0.94354  1.0000
  O   O10       1.0  0.94888  0.89254  0.05634  1.0000
  O   O11       1.0  0.94888  0.11814  0.83073  1.0000
  O   O12       1.0  0.83609  0.11813  0.94353  1.0000
  Zr  Zr2       1.0  0.12581  0.00534  0.12046  1.0000
  Zr  Zr3       1.0  0.12580  0.00534  0.87941  1.0000
  Zr  Zr4       1.0  0.88476  0.00534  0.12046  1.0000
  Zr  Zr5       1.0  0.88475  0.24640  0.87939  1.0000
  Zr  Zr6       1.0  0.12580  0.76428  0.12047  1.0000
  O   O13       1.0  0.08085  0.19695  0.07549  1.0000
  O   O14       1.0  0.08084  0.19695  0.73275  1.0000
  O   O15       1.0  0.73811  0.19694  0.07549  1.0000
  O   O16       1.0  0.27246  0.81373  0.26712  1.0000
  O   O17       1.0  0.27245  0.81374  0.92437  1.0000
  O   O18       1.0  0.92972  0.81373  0.26712  1.0000
  O   O19       1.0  0.27245  0.00535  0.92436  1.0000
  O   O20       1.0  0.08086  0.00534  0.26711  1.0000
  O   O21       1.0  0.92972  0.00533  0.26711  1.0000
  O   O22       1.0  0.27245  0.00534  0.07550  1.0000
  O   O23       1.0  0.92971  0.34809  0.73274  1.0000
  O   O24       1.0  0.08085  0.66258  0.26713  1.0000
  O   O25       1.0  0.27245  0.66259  0.26713  1.0000
  O   O26       1.0  0.27245  0.66259  0.07552  1.0000
  O   O27       1.0  0.73811  0.34809  0.92434  1.0000
  O   O28       1.0  0.92971  0.34809  0.92434  1.0000
  O   O29       1.0  0.06168  0.89254  0.16913  1.0000
  O   O30       1.0  0.17447  0.89255  0.05634  1.0000
  O   O31       1.0  0.06168  0.11814  0.94353  1.0000
  O   O32       1.0  0.94889  0.11813  0.05632  1.0000
  C   C1        1.0  0.00528  0.70381  0.99995  1.0000
  C   C2        1.0  0.00528  0.60148  0.99996  1.0000
  C   C3        1.0  0.92201  0.63669  0.91668  1.0000
  C   C4        1.0  0.92201  0.54055  0.91665  1.0000
  C   C5        1.0  0.08856  0.37399  0.08319  1.0000
  C   C6        1.0  0.08856  0.47013  0.08322  1.0000
  C   C7        1.0  0.70377  0.00533  0.99993  1.0000
  C   C8        1.0  0.60144  0.00533  0.99993  1.0000
  C   C9        1.0  0.71918  0.76981  0.11770  1.0000
  C   C10       1.0  0.72997  0.65205  0.17657  1.0000
  C   C11       1.0  0.63382  0.65206  0.17657  1.0000
  C   C12       1.0  0.52686  0.76983  0.11769  1.0000
  C   C13       1.0  0.51607  0.88759  0.05881  1.0000
  C   C14       1.0  0.61223  0.88757  0.05882  1.0000
  C   C15       1.0  0.39833  0.12311  0.94106  1.0000
  C   C16       1.0  0.49448  0.12310  0.94105  1.0000
  C   C17       1.0  0.29138  0.24088  0.88217  1.0000
  C   C18       1.0  0.28058  0.35864  0.82329  1.0000
  C   C19       1.0  0.37674  0.35863  0.82329  1.0000
  C   C20       1.0  0.48369  0.24086  0.88218  1.0000
  C   C21       1.0  0.30679  0.00535  0.99993  1.0000
  C   C22       1.0  0.40912  0.00535  0.99993  1.0000
  C   C23       1.0  0.00527  0.00534  0.69841  1.0000
  C   C24       1.0  0.00527  0.00535  0.59608  1.0000
  C   C25       1.0  0.00528  0.30686  0.99991  1.0000
  C   C26       1.0  0.00528  0.40920  0.99991  1.0000
  C   C27       1.0  0.94639  0.12310  0.48912  1.0000
  C   C28       1.0  0.94641  0.12310  0.39297  1.0000
  C   C29       1.0  0.06417  0.88757  0.51076  1.0000
  C   C30       1.0  0.06417  0.88758  0.60690  1.0000
  C   C31       1.0  0.00529  0.00534  0.30145  1.0000
  C   C32       1.0  0.00529  0.00533  0.40379  1.0000
  C   C33       1.0  0.30679  0.70382  0.99995  1.0000
  C   C34       1.0  0.40912  0.60149  0.99996  1.0000
  C   C35       1.0  0.00528  0.70381  0.30147  1.0000
  C   C36       1.0  0.00529  0.60147  0.40381  1.0000
  C   C37       1.0  0.30680  0.70382  0.30147  1.0000
  C   C38       1.0  0.40913  0.60148  0.40381  1.0000
  C   C39       1.0  0.70376  0.30686  0.69839  1.0000
  C   C40       1.0  0.60143  0.40920  0.59606  1.0000
  C   C41       1.0  0.70377  0.30686  0.99991  1.0000
  C   C42       1.0  0.60144  0.40919  0.99991  1.0000
  C   C43       1.0  0.00527  0.30687  0.69839  1.0000
  C   C44       1.0  0.00527  0.40921  0.59606  1.0000
  C   C45       1.0  0.39832  0.55341  0.94109  1.0000
  C   C46       1.0  0.49447  0.45727  0.94109  1.0000
  C   C47       1.0  0.61222  0.45728  0.05884  1.0000
  C   C48       1.0  0.51607  0.55343  0.05883  1.0000
  C   C49       1.0  0.06417  0.55339  0.51077  1.0000
  C   C50       1.0  0.06415  0.45725  0.60692  1.0000
  C   C51       1.0  0.94639  0.45726  0.48915  1.0000
  C   C52       1.0  0.94639  0.55341  0.39300  1.0000
  C   C53       1.0  0.51608  0.55341  0.39302  1.0000
  C   C54       1.0  0.61223  0.45726  0.48918  1.0000
  C   C55       1.0  0.49446  0.45727  0.60693  1.0000
  C   C56       1.0  0.39832  0.55342  0.51077  1.0000
  H   H1        1.0  0.85421  0.56924  0.84883  1.0000
  C   C57       1.0  0.12893  0.40436  0.72458  1.0000
  N   N1        1.0  0.17773  0.36452  0.81320  1.0000
  C   C58       1.0  0.18016  0.43138  0.17484  1.0000
  N   N2        1.0  0.24916  0.40221  0.24384  1.0000
  C   C59       1.0  0.52796  0.60632  0.12360  1.0000
  N   N3        1.0  0.53691  0.64616  0.17238  1.0000
  C   C60       1.0  0.12894  0.75803  0.52265  1.0000
  N   N4        1.0  0.17772  0.66046  0.53161  1.0000
  C   C61       1.0  0.18015  0.22950  0.17478  1.0000
  N   N5        1.0  0.24914  0.12066  0.24377  1.0000
  C   C62       1.0  0.88162  0.25265  0.47721  1.0000
  N   N6        1.0  0.83283  0.35023  0.46823  1.0000
  C   C63       1.0  0.82495  0.76979  0.11770  1.0000
  N   N7        1.0  0.90463  0.76977  0.11770  1.0000
  H   H2        1.0  0.11212  0.59252  0.51958  1.0000
  H   H3        1.0  0.69931  0.41812  0.48038  1.0000
  H   H4        1.0  0.85419  0.74364  0.84889  1.0000
  H   H5        1.0  0.21309  0.24088  0.88218  1.0000
  C   C64       1.0  0.88162  0.60630  0.27533  1.0000
  N   N8        1.0  0.83283  0.64614  0.18671  1.0000
  H   H6        1.0  0.89844  0.41812  0.48036  1.0000
  H   H7        1.0  0.48567  0.41813  0.69402  1.0000
  H   H8        1.0  0.81706  0.55616  0.22452  1.0000
  H   H9        1.0  0.48567  0.41813  0.89315  1.0000
  H   H10       1.0  0.64261  0.55617  0.22452  1.0000
  H   H11       1.0  0.44858  0.76983  0.11770  1.0000
  H   H12       1.0  0.11212  0.79168  0.69400  1.0000
  H   H13       1.0  0.89847  0.21898  0.30588  1.0000
  C   C65       1.0  0.28068  0.60628  0.87631  1.0000
  N   N9        1.0  0.19207  0.64610  0.82752  1.0000
  C   C66       1.0  0.72988  0.40440  0.12361  1.0000
  N   N10       1.0  0.81849  0.36457  0.17241  1.0000
  H   H14       1.0  0.52489  0.59254  0.30593  1.0000
  H   H15       1.0  0.31123  0.59257  0.51957  1.0000
  H   H16       1.0  0.36794  0.45452  0.77536  1.0000
  C   C67       1.0  0.58947  0.24084  0.88219  1.0000
  N   N11       1.0  0.66914  0.24082  0.88220  1.0000
  C   C68       1.0  0.16293  0.48818  0.75853  1.0000
  N   N12       1.0  0.07432  0.58575  0.70974  1.0000
