data_image0
_chemical_formula_structural       O7Cu2OC93O7Cu2O8Cu2O8Cu2O8Cu2OC114O7Cu2OC33H2Cl3HClHClH3ClH2Cl2H2ClHCl2H4Cl6HCl2H2ClHClH3ClH2ClHClHClHCl2H4ClH8ClHClH2Cl2HClH3Cl2H4ClHCl2HCl2HClHClH2ClH3Cl3HCl4HCl2H2ClHCl2
_chemical_formula_sum              "O48 Cu12 C240 H65 Cl55"
_cell_length_a       38.067
_cell_length_b       38.0775
_cell_length_c       38.0671
_cell_angle_alpha    59.9977
_cell_angle_beta     89.9987
_cell_angle_gamma    60.0002

_space_group_name_H-M_alt    "P 1"
_space_group_IT_number       1

loop_
  _space_group_symop_operation_xyz
  'x, y, z'

loop_
  _atom_site_type_symbol
  _atom_site_label
  _atom_site_symmetry_multiplicity
  _atom_site_fract_x
  _atom_site_fract_y
  _atom_site_fract_z
  _atom_site_occupancy
  O   O1        1.0  0.70059  0.74863  0.01045  1.0000
  O   O2        1.0  0.75167  0.82055  0.98960  1.0000
  O   O3        1.0  0.75167  0.74863  0.06153  1.0000
  O   O4        1.0  0.70059  0.82055  0.93851  1.0000
  O   O5        1.0  0.81010  0.69022  0.06153  1.0000
  O   O6        1.0  0.81010  0.76214  0.98960  1.0000
  O   O7        1.0  0.75902  0.69022  0.01045  1.0000
  Cu  Cu1       1.0  0.78989  0.72085  0.00002  1.0000
  Cu  Cu2       1.0  0.72080  0.78992  0.00002  1.0000
  O   O8        1.0  0.75901  0.76214  0.93851  1.0000
  C   C1        1.0  0.87177  0.96064  0.97475  1.0000
  C   C2        1.0  0.91405  0.93961  0.97446  1.0000
  C   C3        1.0  0.87177  0.89705  0.97475  1.0000
  C   C4        1.0  0.91405  0.87612  0.97445  1.0000
  C   C5        1.0  0.93539  0.89705  0.97475  1.0000
  C   C6        1.0  0.85053  0.93961  0.97445  1.0000
  C   C7        1.0  0.80802  0.02422  0.97991  1.0000
  C   C8        1.0  0.78785  0.06439  0.98317  1.0000
  C   C9        1.0  0.80959  0.08454  0.98481  1.0000
  C   C10       1.0  0.78773  0.12810  0.98835  1.0000
  C   C11       1.0  0.85149  0.06452  0.98318  1.0000
  C   C12       1.0  0.87165  0.02435  0.97992  1.0000
  C   C13       1.0  0.84991  0.00420  0.97829  1.0000
  C   C14       1.0  0.00414  0.89205  0.97992  1.0000
  C   C15       1.0  0.04758  0.86877  0.98318  1.0000
  C   C16       1.0  0.06937  0.82526  0.98481  1.0000
  C   C17       1.0  0.11648  0.80002  0.98835  1.0000
  C   C18       1.0  0.04772  0.80502  0.98318  1.0000
  C   C19       1.0  0.00428  0.82830  0.97992  1.0000
  C   C20       1.0  0.98249  0.87181  0.97829  1.0000
  C   C21       1.0  0.80801  0.89206  0.97991  1.0000
  C   C22       1.0  0.78785  0.86878  0.98317  1.0000
  C   C23       1.0  0.80959  0.82527  0.98480  1.0000
  C   C24       1.0  0.78773  0.80003  0.98833  1.0000
  C   C25       1.0  0.85149  0.80503  0.98318  1.0000
  C   C26       1.0  0.87165  0.82830  0.97992  1.0000
  C   C27       1.0  0.84991  0.87182  0.97828  1.0000
  C   C28       1.0  0.53630  0.56808  0.03168  1.0000
  C   C29       1.0  0.55764  0.52551  0.03198  1.0000
  C   C30       1.0  0.59991  0.56808  0.03168  1.0000
  C   C31       1.0  0.62115  0.52551  0.03198  1.0000
  C   C32       1.0  0.59991  0.50448  0.03168  1.0000
  C   C33       1.0  0.55764  0.58901  0.03198  1.0000
  C   C34       1.0  0.38290  0.68260  0.02017  1.0000
  C   C35       1.0  0.33946  0.70601  0.01691  1.0000
  C   C36       1.0  0.31767  0.68592  0.01528  1.0000
  C   C37       1.0  0.27056  0.71130  0.01174  1.0000
  C   C38       1.0  0.33932  0.64240  0.01690  1.0000
  C   C39       1.0  0.38276  0.61899  0.02017  1.0000
  C   C40       1.0  0.40455  0.63909  0.02180  1.0000
  C   C41       1.0  0.63876  0.36263  0.02017  1.0000
  C   C42       1.0  0.65878  0.32246  0.01691  1.0000
  C   C43       1.0  0.70068  0.30231  0.01528  1.0000
  C   C44       1.0  0.72239  0.25875  0.01174  1.0000
  C   C45       1.0  0.72255  0.32233  0.01690  1.0000
  C   C46       1.0  0.70253  0.36250  0.02016  1.0000
  C   C47       1.0  0.66063  0.38265  0.02179  1.0000
  C   C48       1.0  0.63876  0.68261  0.02015  1.0000
  C   C49       1.0  0.65878  0.70603  0.01689  1.0000
  C   C50       1.0  0.70067  0.68593  0.01525  1.0000
  C   C51       1.0  0.72238  0.71132  0.01171  1.0000
  C   C52       1.0  0.72254  0.64242  0.01688  1.0000
  C   C53       1.0  0.70252  0.61901  0.02014  1.0000
  C   C54       1.0  0.66063  0.63910  0.02178  1.0000
  C   C55       1.0  0.45165  0.61370  0.02533  1.0000
  C   C56       1.0  0.48920  0.59347  0.02815  1.0000
  C   C57       1.0  0.62162  0.59347  0.02814  1.0000
  C   C58       1.0  0.63892  0.61371  0.02532  1.0000
  C   C59       1.0  0.62162  0.46093  0.02814  1.0000
  C   C60       1.0  0.63892  0.42621  0.02533  1.0000
  C   C61       1.0  0.59963  0.94268  0.59362  1.0000
  C   C62       1.0  0.55736  0.98525  0.57238  1.0000
  C   C63       1.0  0.59963  0.94268  0.65724  1.0000
  C   C64       1.0  0.55736  0.98525  0.63590  1.0000
  C   C65       1.0  0.53602  0.00628  0.59362  1.0000
  C   C66       1.0  0.62087  0.92175  0.63590  1.0000
  C   C67       1.0  0.70268  0.82816  0.55478  1.0000
  C   C68       1.0  0.72284  0.80474  0.53476  1.0000
  C   C69       1.0  0.70110  0.82484  0.49287  1.0000
  C   C70       1.0  0.72296  0.79945  0.47116  1.0000
  C   C71       1.0  0.65920  0.86835  0.47099  1.0000
  C   C72       1.0  0.63904  0.89177  0.49101  1.0000
  C   C73       1.0  0.66078  0.87167  0.53291  1.0000
  C   C74       1.0  0.38262  0.14813  0.49058  1.0000
  C   C75       1.0  0.33917  0.18830  0.47042  1.0000
  C   C76       1.0  0.31738  0.20846  0.49215  1.0000
  C   C77       1.0  0.27028  0.25201  0.47029  1.0000
  C   C78       1.0  0.33903  0.18843  0.53405  1.0000
  C   C79       1.0  0.38248  0.14827  0.55421  1.0000
  C   C80       1.0  0.40426  0.12811  0.53247  1.0000
  C   C81       1.0  0.70267  0.82816  0.81064  1.0000
  C   C82       1.0  0.72284  0.80474  0.85408  1.0000
  C   C83       1.0  0.70110  0.82484  0.87588  1.0000
  C   C84       1.0  0.72296  0.79945  0.92298  1.0000
  C   C85       1.0  0.65920  0.86835  0.85422  1.0000
  C   C86       1.0  0.63904  0.89176  0.81078  1.0000
  C   C87       1.0  0.66078  0.87167  0.78899  1.0000
  C   C88       1.0  0.63892  0.89706  0.55461  1.0000
  C   C89       1.0  0.62149  0.91729  0.57192  1.0000
  C   C90       1.0  0.62149  0.91730  0.70434  1.0000
  C   C91       1.0  0.63892  0.89706  0.74189  1.0000
  C   C92       1.0  0.48892  0.04983  0.57176  1.0000
  C   C93       1.0  0.45137  0.08455  0.55434  1.0000
  O   O9        1.0  0.25503  0.69021  0.01047  1.0000
  O   O10       1.0  0.13201  0.76213  0.98962  1.0000
  O   O11       1.0  0.20394  0.69021  0.06155  1.0000
  O   O12       1.0  0.18310  0.76213  0.93854  1.0000
  O   O13       1.0  0.20394  0.74862  0.06156  1.0000
  O   O14       1.0  0.13201  0.82053  0.98962  1.0000
  O   O15       1.0  0.25503  0.74862  0.01047  1.0000
  Cu  Cu3       1.0  0.19352  0.78991  0.00005  1.0000
  Cu  Cu4       1.0  0.19352  0.72084  0.00004  1.0000
  O   O16       1.0  0.18310  0.82054  0.93854  1.0000
  O   O17       1.0  0.75902  0.24449  0.01047  1.0000
  O   O18       1.0  0.81011  0.14235  0.98962  1.0000
  O   O19       1.0  0.81010  0.14235  0.06156  1.0000
  O   O20       1.0  0.75902  0.24450  0.93854  1.0000
  O   O21       1.0  0.75168  0.14235  0.06155  1.0000
  O   O22       1.0  0.75168  0.14235  0.98962  1.0000
  O   O23       1.0  0.70059  0.24449  0.01047  1.0000
  Cu  Cu5       1.0  0.72080  0.19342  0.00004  1.0000
  Cu  Cu6       1.0  0.78990  0.19342  0.00005  1.0000
  O   O24       1.0  0.70060  0.24450  0.93853  1.0000
  O   O25       1.0  0.13173  0.36841  0.44158  1.0000
  O   O26       1.0  0.25474  0.26627  0.49266  1.0000
  O   O27       1.0  0.18281  0.26627  0.49267  1.0000
  O   O28       1.0  0.20366  0.36841  0.44157  1.0000
  O   O29       1.0  0.18281  0.26626  0.43424  1.0000
  O   O30       1.0  0.25474  0.26627  0.43424  1.0000
  O   O31       1.0  0.13173  0.36841  0.38315  1.0000
  Cu  Cu7       1.0  0.19324  0.31734  0.40336  1.0000
  Cu  Cu8       1.0  0.19323  0.31734  0.47245  1.0000
  O   O32       1.0  0.20366  0.36841  0.38315  1.0000
  O   O33       1.0  0.75168  0.74863  0.38344  1.0000
  O   O34       1.0  0.70059  0.82055  0.43452  1.0000
  O   O35       1.0  0.70059  0.74863  0.43453  1.0000
  O   O36       1.0  0.75167  0.82055  0.38343  1.0000
  O   O37       1.0  0.75902  0.69022  0.49295  1.0000
  O   O38       1.0  0.75902  0.76213  0.49295  1.0000
  O   O39       1.0  0.81010  0.69022  0.44187  1.0000
  Cu  Cu9       1.0  0.78989  0.72085  0.47274  1.0000
  Cu  Cu10      1.0  0.72080  0.78992  0.40365  1.0000
  O   O40       1.0  0.81010  0.76214  0.44186  1.0000
  C   C94       1.0  0.93538  0.55012  0.32177  1.0000
  C   C95       1.0  0.91405  0.57115  0.34301  1.0000
  C   C96       1.0  0.87177  0.61371  0.25816  1.0000
  C   C97       1.0  0.85053  0.63465  0.27949  1.0000
  C   C98       1.0  0.87177  0.61371  0.32177  1.0000
  C   C99       1.0  0.91405  0.57115  0.27949  1.0000
  C   C100      1.0  0.00414  0.48654  0.32161  1.0000
  C   C101      1.0  0.04758  0.44637  0.34163  1.0000
  C   C102      1.0  0.06937  0.42622  0.38352  1.0000
  C   C103      1.0  0.11648  0.38266  0.40524  1.0000
  C   C104      1.0  0.04772  0.44624  0.40540  1.0000
  C   C105      1.0  0.00428  0.48641  0.38538  1.0000
  C   C106      1.0  0.98249  0.50656  0.34348  1.0000
  C   C107      1.0  0.87194  0.61871  0.38553  1.0000
  C   C108      1.0  0.85191  0.64199  0.40569  1.0000
  C   C109      1.0  0.81002  0.68550  0.38395  1.0000
  C   C110      1.0  0.78831  0.71074  0.40581  1.0000
  C   C111      1.0  0.78815  0.70574  0.34205  1.0000
  C   C112      1.0  0.80817  0.68246  0.32189  1.0000
  C   C113      1.0  0.85006  0.63895  0.34363  1.0000
  C   C114      1.0  0.87194  0.61871  0.18941  1.0000
  C   C115      1.0  0.85191  0.64199  0.14596  1.0000
  C   C116      1.0  0.81002  0.68550  0.12417  1.0000
  C   C117      1.0  0.78831  0.71074  0.07706  1.0000
  C   C118      1.0  0.78815  0.70574  0.14582  1.0000
  C   C119      1.0  0.80817  0.68247  0.18926  1.0000
  C   C120      1.0  0.85006  0.63895  0.21105  1.0000
  C   C121      1.0  0.21879  0.61368  0.32180  1.0000
  C   C122      1.0  0.21909  0.57112  0.34304  1.0000
  C   C123      1.0  0.21880  0.61369  0.25818  1.0000
  C   C124      1.0  0.21909  0.57112  0.27952  1.0000
  C   C125      1.0  0.21879  0.55009  0.32179  1.0000
  C   C126      1.0  0.21909  0.63462  0.27952  1.0000
  C   C127      1.0  0.21363  0.68258  0.32164  1.0000
  C   C128      1.0  0.21038  0.70599  0.34166  1.0000
  C   C129      1.0  0.20874  0.68589  0.38355  1.0000
  C   C130      1.0  0.20521  0.71127  0.40527  1.0000
  C   C131      1.0  0.21037  0.64238  0.40543  1.0000
  C   C132      1.0  0.21363  0.61897  0.38540  1.0000
  C   C133      1.0  0.21526  0.63907  0.34351  1.0000
  C   C134      1.0  0.21363  0.48651  0.38555  1.0000
  C   C135      1.0  0.21037  0.44634  0.40571  1.0000
  C   C136      1.0  0.20873  0.42619  0.38397  1.0000
  C   C137      1.0  0.20520  0.38263  0.40583  1.0000
  C   C138      1.0  0.21036  0.44621  0.34207  1.0000
  C   C139      1.0  0.21362  0.48638  0.32192  1.0000
  C   C140      1.0  0.21525  0.50654  0.34365  1.0000
  C   C141      1.0  0.21364  0.68259  0.18943  1.0000
  C   C142      1.0  0.21038  0.70601  0.14599  1.0000
  C   C143      1.0  0.20874  0.68591  0.12419  1.0000
  C   C144      1.0  0.20521  0.71130  0.07709  1.0000
  C   C145      1.0  0.21037  0.64240  0.14584  1.0000
  C   C146      1.0  0.21362  0.61898  0.18929  1.0000
  C   C147      1.0  0.21526  0.63908  0.21108  1.0000
  C   C148      1.0  0.87177  0.89700  0.32179  1.0000
  C   C149      1.0  0.91405  0.87606  0.34303  1.0000
  C   C150      1.0  0.87177  0.96060  0.25818  1.0000
  C   C151      1.0  0.91405  0.93957  0.27951  1.0000
  C   C152      1.0  0.93539  0.89700  0.32179  1.0000
  C   C153      1.0  0.85053  0.93957  0.27951  1.0000
  C   C154      1.0  0.80802  0.89201  0.32161  1.0000
  C   C155      1.0  0.78785  0.86873  0.34164  1.0000
  C   C156      1.0  0.80959  0.82521  0.38353  1.0000
  C   C157      1.0  0.78773  0.79997  0.40524  1.0000
  C   C158      1.0  0.85149  0.80497  0.40540  1.0000
  C   C159      1.0  0.87165  0.82824  0.38538  1.0000
  C   C160      1.0  0.84991  0.87176  0.34349  1.0000
  C   C161      1.0  0.00414  0.82809  0.38555  1.0000
  C   C162      1.0  0.04758  0.80467  0.40571  1.0000
  C   C163      1.0  0.06937  0.82477  0.38397  1.0000
  C   C164      1.0  0.11648  0.79938  0.40583  1.0000
  C   C165      1.0  0.04772  0.86829  0.34208  1.0000
  C   C166      1.0  0.00428  0.89171  0.32192  1.0000
  C   C167      1.0  0.98249  0.87160  0.34365  1.0000
  C   C168      1.0  0.80802  0.02419  0.18942  1.0000
  C   C169      1.0  0.78786  0.06437  0.14598  1.0000
  C   C170      1.0  0.80959  0.08452  0.12419  1.0000
  C   C171      1.0  0.78773  0.12808  0.07709  1.0000
  C   C172      1.0  0.85149  0.06449  0.14584  1.0000
  C   C173      1.0  0.87165  0.02432  0.18929  1.0000
  C   C174      1.0  0.84991  0.00417  0.21107  1.0000
  C   C175      1.0  0.16190  0.00601  0.59365  1.0000
  C   C176      1.0  0.16160  0.98498  0.57241  1.0000
  C   C177      1.0  0.16189  0.94241  0.65726  1.0000
  C   C178      1.0  0.16160  0.92148  0.63592  1.0000
  C   C179      1.0  0.16190  0.94242  0.59364  1.0000
  C   C180      1.0  0.16160  0.98497  0.63592  1.0000
  C   C181      1.0  0.17342  0.14785  0.55481  1.0000
  C   C182      1.0  0.17668  0.18803  0.53479  1.0000
  C   C183      1.0  0.17831  0.20818  0.49289  1.0000
  C   C184      1.0  0.18185  0.25174  0.47118  1.0000
  C   C185      1.0  0.17669  0.18816  0.47102  1.0000
  C   C186      1.0  0.17342  0.14800  0.49104  1.0000
  C   C187      1.0  0.17179  0.12784  0.53293  1.0000
  C   C188      1.0  0.17341  0.89207  0.49060  1.0000
  C   C189      1.0  0.17667  0.86881  0.47043  1.0000
  C   C190      1.0  0.17830  0.82529  0.49217  1.0000
  C   C191      1.0  0.18184  0.80005  0.47031  1.0000
  C   C192      1.0  0.17668  0.80504  0.53407  1.0000
  C   C193      1.0  0.17341  0.82832  0.55423  1.0000
  C   C194      1.0  0.17178  0.87184  0.53249  1.0000
  C   C195      1.0  0.17341  0.89206  0.81066  1.0000
  C   C196      1.0  0.17667  0.86878  0.85411  1.0000
  C   C197      1.0  0.17830  0.82526  0.87590  1.0000
  C   C198      1.0  0.18184  0.80002  0.92301  1.0000
  C   C199      1.0  0.17668  0.80502  0.85425  1.0000
  C   C200      1.0  0.17342  0.82830  0.81080  1.0000
  C   C201      1.0  0.17178  0.87182  0.78902  1.0000
  C   C202      1.0  0.16825  0.08428  0.55464  1.0000
  C   C203      1.0  0.16544  0.04956  0.57194  1.0000
  C   C204      1.0  0.16543  0.91717  0.70436  1.0000
  C   C205      1.0  0.16825  0.89706  0.74191  1.0000
  C   C206      1.0  0.16543  0.91718  0.57178  1.0000
  C   C207      1.0  0.16825  0.89707  0.55436  1.0000
  O   O41       1.0  0.18307  0.76210  0.49298  1.0000
  O   O42       1.0  0.20393  0.69018  0.44190  1.0000
  O   O43       1.0  0.13199  0.76210  0.44189  1.0000
  O   O44       1.0  0.25501  0.69018  0.49299  1.0000
  O   O45       1.0  0.13200  0.82051  0.38347  1.0000
  O   O46       1.0  0.20394  0.74859  0.38347  1.0000
  O   O47       1.0  0.18308  0.82051  0.43456  1.0000
  Cu  Cu11      1.0  0.19351  0.78988  0.40368  1.0000
  Cu  Cu12      1.0  0.19350  0.72081  0.47278  1.0000
  O   O48       1.0  0.25501  0.74859  0.43457  1.0000
  C   C208      1.0  0.53630  0.56813  0.59365  1.0000
  C   C209      1.0  0.55764  0.58907  0.57242  1.0000
  C   C210      1.0  0.59992  0.50453  0.65726  1.0000
  C   C211      1.0  0.62116  0.52556  0.63593  1.0000
  C   C212      1.0  0.59992  0.56813  0.59366  1.0000
  C   C213      1.0  0.55764  0.52556  0.63593  1.0000
  C   C214      1.0  0.38290  0.61849  0.55480  1.0000
  C   C215      1.0  0.33945  0.64176  0.53478  1.0000
  C   C216      1.0  0.31766  0.68529  0.49288  1.0000
  C   C217      1.0  0.27056  0.71053  0.47117  1.0000
  C   C218      1.0  0.33932  0.70553  0.47101  1.0000
  C   C219      1.0  0.38276  0.68225  0.49103  1.0000
  C   C220      1.0  0.40455  0.63873  0.53293  1.0000
  C   C221      1.0  0.63876  0.68267  0.49063  1.0000
  C   C222      1.0  0.65878  0.70608  0.47047  1.0000
  C   C223      1.0  0.70068  0.68598  0.49220  1.0000
  C   C224      1.0  0.72239  0.71137  0.47035  1.0000
  C   C225      1.0  0.72255  0.64246  0.53410  1.0000
  C   C226      1.0  0.70253  0.61905  0.55426  1.0000
  C   C227      1.0  0.66063  0.63915  0.53252  1.0000
  C   C228      1.0  0.63876  0.36266  0.81066  1.0000
  C   C229      1.0  0.65878  0.32248  0.85411  1.0000
  C   C230      1.0  0.70068  0.30232  0.87590  1.0000
  C   C231      1.0  0.72239  0.25876  0.92300  1.0000
  C   C232      1.0  0.72255  0.32235  0.85425  1.0000
  C   C233      1.0  0.70253  0.36253  0.81081  1.0000
  C   C234      1.0  0.66063  0.38267  0.78902  1.0000
  C   C235      1.0  0.45165  0.61349  0.55464  1.0000
  C   C236      1.0  0.48920  0.59337  0.57194  1.0000
  C   C237      1.0  0.62162  0.46097  0.70437  1.0000
  C   C238      1.0  0.63893  0.42624  0.74191  1.0000
  C   C239      1.0  0.62162  0.59352  0.57180  1.0000
  C   C240      1.0  0.63893  0.61376  0.55438  1.0000
  H   H1        1.0  0.90576  0.81182  0.97859  1.0000
  H   H2        1.0  0.98640  0.92748  0.97859  1.0000
  Cl  Cl1       1.0  0.31192  0.76024  0.41835  1.0000
  Cl  Cl2       1.0  0.87941  0.61654  0.11875  1.0000
  Cl  Cl3       1.0  0.07479  0.42121  0.31413  1.0000
  H   H3        1.0  0.98665  0.92714  0.28780  1.0000
  Cl  Cl4       1.0  0.58609  0.38796  0.02223  1.0000
  H   H4        1.0  0.79031  0.92749  0.97857  1.0000
  Cl  Cl5       1.0  0.07480  0.89422  0.98522  1.0000
  H   H5        1.0  0.75374  0.08069  0.98450  1.0000
  H   H6        1.0  0.32155  0.20460  0.43630  1.0000
  H   H7        1.0  0.65589  0.50792  0.03245  1.0000
  Cl  Cl6       1.0  0.87882  0.75032  0.98523  1.0000
  H   H8        1.0  0.90576  0.00805  0.97860  1.0000
  H   H9        1.0  0.20905  0.74143  0.12836  1.0000
  Cl  Cl7       1.0  0.58609  0.70788  0.02221  1.0000
  Cl  Cl8       1.0  0.53120  0.49833  0.03273  1.0000
  H   H10       1.0  0.65589  0.50795  0.65307  1.0000
  H   H11       1.0  0.81580  0.95722  0.97397  1.0000
  Cl  Cl9       1.0  0.78068  0.99886  0.21681  1.0000
  H   H12       1.0  0.06547  0.76959  0.98451  1.0000
  Cl  Cl10      1.0  0.78067  0.70792  0.21648  1.0000
  Cl  Cl11      1.0  0.17872  0.21319  0.56229  1.0000
  H   H13       1.0  0.20903  0.62604  0.12810  1.0000
  H   H14       1.0  0.75666  0.30592  0.01557  1.0000
  H   H15       1.0  0.17207  0.92749  0.79293  1.0000
  H   H16       1.0  0.64097  0.30616  0.01559  1.0000
  Cl  Cl12      1.0  0.31193  0.61714  0.01486  1.0000
  Cl  Cl13      1.0  0.41029  0.70787  0.02222  1.0000
  Cl  Cl14      1.0  0.20831  0.42088  0.31474  1.0000
  Cl  Cl15      1.0  0.21566  0.56429  0.21650  1.0000
  Cl  Cl16      1.0  0.87882  0.08985  0.98524  1.0000
  Cl  Cl17      1.0  0.31224  0.76072  0.01486  1.0000
  H   H17       1.0  0.75666  0.30594  0.87200  1.0000
  Cl  Cl18      1.0  0.58637  0.94647  0.46351  1.0000
  Cl  Cl19      1.0  0.07512  0.42090  0.45807  1.0000
  H   H18       1.0  0.93118  0.95717  0.26238  1.0000
  H   H19       1.0  0.93118  0.84181  0.37776  1.0000
  Cl  Cl20      1.0  0.17137  0.80287  0.60690  1.0000
  H   H20       1.0  0.40039  0.58356  0.02149  1.0000
  Cl  Cl21      1.0  0.17874  0.21350  0.41835  1.0000
  H   H21       1.0  0.98640  0.50295  0.28750  1.0000
  H   H22       1.0  0.72034  0.37880  0.02148  1.0000
  H   H23       1.0  0.79031  0.00782  0.97858  1.0000
  Cl  Cl22      1.0  0.73518  0.89423  0.98521  1.0000
  H   H24       1.0  0.75404  0.74118  0.12807  1.0000
  H   H25       1.0  0.98665  0.50271  0.40319  1.0000
  Cl  Cl23      1.0  0.73002  0.56431  0.02219  1.0000
  H   H26       1.0  0.93118  0.84187  0.97397  1.0000
  Cl  Cl24      1.0  0.79690  0.96675  0.25306  1.0000
  H   H27       1.0  0.17801  0.76959  0.87199  1.0000
  Cl  Cl25      1.0  0.73002  0.38770  0.78360  1.0000
  H   H28       1.0  0.17210  0.13170  0.47322  1.0000
  Cl  Cl26      1.0  0.41029  0.56376  0.60746  1.0000
  Cl  Cl27      1.0  0.92460  0.56400  0.41286  1.0000
  H   H29       1.0  0.64151  0.88471  0.43688  1.0000
  H   H30       1.0  0.90605  0.58327  0.20715  1.0000
  H   H31       1.0  0.75665  0.62606  0.01555  1.0000
  H   H32       1.0  0.17208  0.92751  0.47289  1.0000
  Cl  Cl28      1.0  0.31224  0.61632  0.56227  1.0000
  H   H33       1.0  0.60465  0.37906  0.79292  1.0000
  H   H34       1.0  0.54023  0.00285  0.65303  1.0000
  H   H35       1.0  0.40036  0.13172  0.47287  1.0000
  H   H36       1.0  0.98665  0.81182  0.97859  1.0000
  H   H37       1.0  0.54023  0.00285  0.53764  1.0000
  H   H38       1.0  0.21956  0.55352  0.37777  1.0000
  H   H39       1.0  0.54050  0.62327  0.03245  1.0000
  H   H40       1.0  0.65561  0.88750  0.65303  1.0000
  Cl  Cl29      1.0  0.87881  0.75025  0.45807  1.0000
  H   H41       1.0  0.75374  0.08067  0.12835  1.0000
  Cl  Cl30      1.0  0.17138  0.80285  0.78359  1.0000
  H   H42       1.0  0.75695  0.76931  0.87171  1.0000
  H   H43       1.0  0.16112  0.00258  0.53767  1.0000
  Cl  Cl31      1.0  0.63128  0.76073  0.01485  1.0000
  Cl  Cl32      1.0  0.73001  0.80289  0.78325  1.0000
  H   H44       1.0  0.90577  0.00801  0.20691  1.0000
  Cl  Cl33      1.0  0.73001  0.80289  0.60745  1.0000
  H   H45       1.0  0.17209  0.13145  0.58892  1.0000
  H   H46       1.0  0.17800  0.88529  0.43632  1.0000
  H   H47       1.0  0.64150  0.88471  0.87197  1.0000
  Cl  Cl34      1.0  0.16086  0.01215  0.66237  1.0000
  Cl  Cl35      1.0  0.17873  0.75034  0.56139  1.0000
  H   H48       1.0  0.21958  0.55352  0.26239  1.0000
  H   H49       1.0  0.20903  0.62602  0.43954  1.0000
  H   H50       1.0  0.75695  0.76931  0.55257  1.0000
  H   H51       1.0  0.17800  0.88525  0.87174  1.0000
  Cl  Cl36      1.0  0.78068  0.94672  0.26895  1.0000
  H   H52       1.0  0.40039  0.69873  0.47323  1.0000
  Cl  Cl37      1.0  0.87941  0.61654  0.45836  1.0000
  Cl  Cl38      1.0  0.31164  0.21377  0.56137  1.0000
  H   H53       1.0  0.40010  0.13197  0.58832  1.0000
  Cl  Cl39      1.0  0.77522  0.61719  0.56143  1.0000
  Cl  Cl40      1.0  0.53120  0.64195  0.51878  1.0000
  H   H54       1.0  0.93118  0.95722  0.97398  1.0000
  Cl  Cl41      1.0  0.87882  0.08983  0.11845  1.0000
  H   H55       1.0  0.60465  0.69904  0.47292  1.0000
  Cl  Cl42      1.0  0.21983  0.68750  0.25307  1.0000
  H   H56       1.0  0.60493  0.92719  0.79315  1.0000
  H   H57       1.0  0.21497  0.69895  0.20717  1.0000
  Cl  Cl43      1.0  0.79691  0.68755  0.25304  1.0000
  H   H58       1.0  0.16112  0.88723  0.65305  1.0000
  H   H59       1.0  0.93118  0.55355  0.37775  1.0000
  H   H60       1.0  0.93118  0.55356  0.26236  1.0000
  Cl  Cl44      1.0  0.73548  0.76045  0.31473  1.0000
  Cl  Cl45      1.0  0.78067  0.70791  0.26922  1.0000
  Cl  Cl46      1.0  0.07512  0.89356  0.31475  1.0000
  H   H61       1.0  0.21497  0.69895  0.28752  1.0000
  Cl  Cl47      1.0  0.21565  0.56428  0.41289  1.0000
  Cl  Cl48      1.0  0.20834  0.76069  0.31417  1.0000
  Cl  Cl49      1.0  0.63129  0.76079  0.41780  1.0000
  Cl  Cl50      1.0  0.21568  0.51184  0.41288  1.0000
  H   H62       1.0  0.20904  0.43004  0.43982  1.0000
  Cl  Cl51      1.0  0.53119  0.49839  0.66237  1.0000
  Cl  Cl52      1.0  0.21568  0.51155  0.26925  1.0000
  H   H63       1.0  0.64097  0.30618  0.87173  1.0000
  H   H64       1.0  0.75374  0.88521  0.32382  1.0000
  Cl  Cl53      1.0  0.92432  0.80279  0.41288  1.0000
  H   H65       1.0  0.98640  0.81172  0.40325  1.0000
  Cl  Cl54      1.0  0.07480  0.74997  0.45838  1.0000
  Cl  Cl55      1.0  0.73003  0.56434  0.60693  1.0000
