data_image0
_chemical_formula_structural       Zn4O13C36HFHF3H4FH2FHF3
_chemical_formula_sum              "Zn4 O13 C36 H9 F9"
_cell_length_a       17.0774
_cell_length_b       16.1205
_cell_length_c       17.0774
_cell_angle_alpha    92.8687
_cell_angle_beta     89.9786
_cell_angle_gamma    92.9239

_space_group_name_H-M_alt    "P 1"
_space_group_IT_number       1

loop_
  _space_group_symop_operation_xyz
  'x, y, z'

loop_
  _atom_site_type_symbol
  _atom_site_label
  _atom_site_symmetry_multiplicity
  _atom_site_fract_x
  _atom_site_fract_y
  _atom_site_fract_z
  _atom_site_occupancy
  Zn  Zn1       1.0  0.18419  0.66805  0.54028  1.0000
  Zn  Zn2       1.0  0.17744  0.52863  0.66490  1.0000
  Zn  Zn3       1.0  0.05292  0.66803  0.67154  1.0000
  Zn  Zn4       1.0  0.04623  0.52868  0.53368  1.0000
  O   O1        1.0  0.11520  0.59835  0.60260  1.0000
  O   O2        1.0  0.29314  0.64955  0.55680  1.0000
  O   O3        1.0  0.16089  0.54709  0.77563  1.0000
  O   O4        1.0  0.07596  0.78470  0.65967  1.0000
  O   O5        1.0  0.28818  0.54711  0.64835  1.0000
  O   O6        1.0  0.17241  0.78472  0.56324  1.0000
  O   O7        1.0  0.06941  0.64950  0.78051  1.0000
  O   O8        1.0  0.94219  0.64956  0.65327  1.0000
  O   O9        1.0  0.06456  0.54720  0.42471  1.0000
  O   O10       1.0  0.93727  0.54718  0.55199  1.0000
  O   O11       1.0  0.16592  0.64960  0.42956  1.0000
  O   O12       1.0  0.15440  0.41197  0.64195  1.0000
  O   O13       1.0  0.05801  0.41201  0.54555  1.0000
  C   C1        1.0  0.91125  0.59837  0.60263  1.0000
  C   C2        1.0  0.82400  0.59836  0.60262  1.0000
  C   C3        1.0  0.45076  0.65157  0.55482  1.0000
  C   C4        1.0  0.53274  0.65157  0.55482  1.0000
  C   C5        1.0  0.57115  0.59833  0.60258  1.0000
  C   C6        1.0  0.52757  0.54507  0.65033  1.0000
  C   C7        1.0  0.44559  0.54506  0.65031  1.0000
  C   C8        1.0  0.69844  0.54510  0.65036  1.0000
  C   C9        1.0  0.78043  0.54511  0.65037  1.0000
  C   C10       1.0  0.78559  0.65161  0.55486  1.0000
  C   C11       1.0  0.70361  0.65160  0.55485  1.0000
  C   C12       1.0  0.66004  0.59834  0.60260  1.0000
  C   C13       1.0  0.10477  0.38174  0.59230  1.0000
  C   C14       1.0  0.10038  0.28908  0.58786  1.0000
  C   C15       1.0  0.09237  0.11942  0.57975  1.0000
  C   C16       1.0  0.13816  0.07813  0.62544  1.0000
  C   C17       1.0  0.13370  0.98372  0.62093  1.0000
  C   C18       1.0  0.09683  0.21383  0.58427  1.0000
  C   C19       1.0  0.31994  0.59833  0.60257  1.0000
  C   C20       1.0  0.40719  0.59832  0.60256  1.0000
  C   C21       1.0  0.11525  0.59841  0.39786  1.0000
  C   C22       1.0  0.11527  0.59844  0.31061  1.0000
  C   C23       1.0  0.12568  0.81580  0.61293  1.0000
  C   C24       1.0  0.13015  0.90847  0.61733  1.0000
  C   C25       1.0  0.16805  0.65176  0.27215  1.0000
  C   C26       1.0  0.16806  0.65179  0.19017  1.0000
  C   C27       1.0  0.11529  0.59849  0.14666  1.0000
  C   C28       1.0  0.06251  0.54517  0.18513  1.0000
  C   C29       1.0  0.06249  0.54514  0.26711  1.0000
  C   C30       1.0  0.06254  0.54521  0.01426  1.0000
  C   C31       1.0  0.06256  0.54524  0.93228  1.0000
  C   C32       1.0  0.16811  0.65186  0.93732  1.0000
  C   C33       1.0  0.16809  0.65184  0.01930  1.0000
  C   C34       1.0  0.11531  0.59851  0.05777  1.0000
  C   C35       1.0  0.11519  0.59835  0.80655  1.0000
  C   C36       1.0  0.11534  0.59856  0.89381  1.0000
  H   H1        1.0  0.66297  0.50173  0.68923  1.0000
  F   F1        1.0  0.22426  0.70851  0.14923  1.0000
  H   H2        1.0  0.81170  0.50175  0.68926  1.0000
  F   F2        1.0  0.22426  0.70856  0.06561  1.0000
  F   F3        1.0  0.39922  0.48838  0.70112  1.0000
  F   F4        1.0  0.22421  0.70848  0.31845  1.0000
  H   H3        1.0  0.01951  0.50173  0.29842  1.0000
  H   H4        1.0  0.18071  0.11368  0.66795  1.0000
  H   H5        1.0  0.21108  0.69528  0.90600  1.0000
  H   H6        1.0  0.01954  0.50177  0.14969  1.0000
  F   F5        1.0  0.03676  0.07295  0.52420  1.0000
  H   H7        1.0  0.01959  0.50184  0.89685  1.0000
  H   H8        1.0  0.41949  0.69493  0.51593  1.0000
  F   F6        1.0  0.57911  0.70825  0.50401  1.0000
  H   H9        1.0  0.82107  0.69497  0.51599  1.0000
  F   F7        1.0  0.66274  0.70827  0.50403  1.0000
  F   F8        1.0  0.56845  0.48841  0.70115  1.0000
  F   F9        1.0  0.00636  0.48846  0.05520  1.0000
