data_image0
_chemical_formula_structural       Zn4O13C26H2N2H4N2HN2H2N2HN2HN2H4N2H
_chemical_formula_sum              "Zn4 O13 C26 H16 N14"
_cell_length_a       12.6453
_cell_length_b       16.1205
_cell_length_c       16.1207
_cell_angle_alpha    95.6314
_cell_angle_beta     87.1062
_cell_angle_gamma    87.0675

_space_group_name_H-M_alt    "P 1"
_space_group_IT_number       1

loop_
  _space_group_symop_operation_xyz
  'x, y, z'

loop_
  _atom_site_type_symbol
  _atom_site_label
  _atom_site_symmetry_multiplicity
  _atom_site_fract_x
  _atom_site_fract_y
  _atom_site_fract_z
  _atom_site_occupancy
  Zn  Zn1       1.0  0.56590  0.35692  0.48935  1.0000
  Zn  Zn2       1.0  0.56579  0.48956  0.35665  1.0000
  Zn  Zn3       1.0  0.39813  0.34980  0.34960  1.0000
  Zn  Zn4       1.0  0.37909  0.49665  0.49638  1.0000
  O   O1        1.0  0.47723  0.42323  0.42300  1.0000
  O   O2        1.0  0.71424  0.37452  0.47175  1.0000
  O   O3        1.0  0.55147  0.46507  0.23875  1.0000
  O   O4        1.0  0.42841  0.23378  0.36225  1.0000
  O   O5        1.0  0.71415  0.47197  0.37425  1.0000
  O   O6        1.0  0.55167  0.23901  0.46492  1.0000
  O   O7        1.0  0.42829  0.36239  0.23357  1.0000
  O   O8        1.0  0.24726  0.36927  0.36907  1.0000
  O   O9        1.0  0.39595  0.48406  0.61241  1.0000
  O   O10       1.0  0.23327  0.47716  0.47691  1.0000
  O   O11       1.0  0.53320  0.38140  0.60725  1.0000
  O   O12       1.0  0.53300  0.60747  0.38108  1.0000
  O   O13       1.0  0.39584  0.61268  0.48374  1.0000
  C   C1        1.0  0.20180  0.42322  0.42299  1.0000
  C   C2        1.0  0.08397  0.42323  0.42301  1.0000
  C   C3        1.0  0.03032  0.49121  0.49076  1.0000
  C   C4        1.0  0.90776  0.49147  0.49058  1.0000
  C   C5        1.0  0.92042  0.44225  0.33600  1.0000
  C   C6        1.0  0.04296  0.44272  0.33640  1.0000
  C   C7        1.0  0.04327  0.33606  0.44148  1.0000
  C   C8        1.0  0.92050  0.33665  0.44345  1.0000
  C   C9        1.0  0.46237  0.64040  0.43395  1.0000
  C   C10       1.0  0.45611  0.73331  0.43867  1.0000
  C   C11       1.0  0.44468  0.90341  0.44730  1.0000
  C   C12       1.0  0.50982  0.94221  0.39864  1.0000
  C   C13       1.0  0.50346  0.03686  0.40344  1.0000
  C   C14       1.0  0.45104  0.80875  0.44250  1.0000
  C   C15       1.0  0.75373  0.42325  0.42300  1.0000
  C   C16       1.0  0.87156  0.42325  0.42301  1.0000
  C   C17       1.0  0.46247  0.43432  0.64101  1.0000
  C   C18       1.0  0.45618  0.43904  0.73391  1.0000
  C   C19       1.0  0.49214  0.20522  0.41200  1.0000
  C   C20       1.0  0.49840  0.11231  0.40727  1.0000
  C   C21       1.0  0.50976  0.39892  0.94284  1.0000
  C   C22       1.0  0.44466  0.44763  0.90400  1.0000
  C   C23       1.0  0.45107  0.44285  0.80935  1.0000
  C   C24       1.0  0.50335  0.40370  0.03749  1.0000
  C   C25       1.0  0.49193  0.41222  0.20583  1.0000
  C   C26       1.0  0.49824  0.40752  0.11293  1.0000
  H   H1        1.0  0.05636  0.48007  0.55561  1.0000
  H   H2        1.0  0.06845  0.50630  0.32027  1.0000
  N   N1        1.0  0.36871  0.95089  0.50407  1.0000
  N   N2        1.0  0.30745  0.91447  0.54982  1.0000
  H   H3        1.0  0.25379  0.94802  0.58991  1.0000
  H   H4        1.0  0.57036  0.90434  0.35338  1.0000
  H   H5        1.0  0.38410  0.49292  0.94183  1.0000
  H   H6        1.0  0.89630  0.28369  0.39738  1.0000
  N   N3        1.0  0.87812  0.52110  0.31529  1.0000
  N   N4        1.0  0.90728  0.54768  0.24802  1.0000
  H   H7        1.0  0.87741  0.60337  0.23340  1.0000
  N   N5        1.0  0.88006  0.31854  0.52375  1.0000
  N   N6        1.0  0.94217  0.30804  0.58020  1.0000
  H   H8        1.0  0.91361  0.29525  0.63691  1.0000
  H   H9        1.0  0.07876  0.28547  0.39208  1.0000
  N   N7        1.0  0.58572  0.34210  0.89539  1.0000
  N   N8        1.0  0.55531  0.28643  0.84396  1.0000
  H   H10       1.0  0.60895  0.24630  0.81044  1.0000
  N   N9        1.0  0.86574  0.47728  0.57168  1.0000
  N   N10       1.0  0.88257  0.52679  0.63365  1.0000
  H   H11       1.0  0.85290  0.51677  0.69094  1.0000
  N   N11       1.0  0.06467  0.57190  0.47603  1.0000
  N   N12       1.0  0.12850  0.57956  0.41585  1.0000
  H   H12       1.0  0.15277  0.63654  0.40544  1.0000
  H   H13       1.0  0.87498  0.55616  0.47867  1.0000
  H   H14       1.0  0.07909  0.39509  0.28442  1.0000
  H   H15       1.0  0.07139  0.31782  0.50362  1.0000
  N   N13       1.0  0.89198  0.38179  0.27118  1.0000
  N   N14       1.0  0.83524  0.32389  0.28843  1.0000
  H   H16       1.0  0.81515  0.28119  0.24265  1.0000
