data_image0
_chemical_formula_structural       Zn4O13C42H4OHOH3OHOHOHOHOHOH4OHOHOHOH2OH3OH4OHOH4OHOH
_chemical_formula_sum              "Zn4 O31 C42 H36"
_cell_length_a       18.1014
_cell_length_b       18.1014
_cell_length_c       18.1014
_cell_angle_alpha    90.0168
_cell_angle_beta     89.9757
_cell_angle_gamma    89.9736

_space_group_name_H-M_alt    "P 1"
_space_group_IT_number       1

loop_
  _space_group_symop_operation_xyz
  'x, y, z'

loop_
  _atom_site_type_symbol
  _atom_site_label
  _atom_site_symmetry_multiplicity
  _atom_site_fract_x
  _atom_site_fract_y
  _atom_site_fract_z
  _atom_site_occupancy
  Zn  Zn1       1.0  0.13212  0.29500  0.58115  1.0000
  Zn  Zn2       1.0  0.13202  0.41883  0.70499  1.0000
  Zn  Zn3       1.0  0.00828  0.29499  0.70499  1.0000
  Zn  Zn4       1.0  0.00823  0.41879  0.58120  1.0000
  O   O1        1.0  0.07016  0.35690  0.64309  1.0000
  O   O2        1.0  0.23574  0.31144  0.59756  1.0000
  O   O3        1.0  0.11558  0.40241  0.80862  1.0000
  O   O4        1.0  0.02477  0.19136  0.68854  1.0000
  O   O5        1.0  0.23566  0.40242  0.68854  1.0000
  O   O6        1.0  0.11576  0.19137  0.59756  1.0000
  O   O7        1.0  0.02467  0.31143  0.80863  1.0000
  O   O8        1.0  0.90464  0.31140  0.68859  1.0000
  O   O9        1.0  0.02469  0.40236  0.47756  1.0000
  O   O10       1.0  0.90460  0.40236  0.59765  1.0000
  O   O11       1.0  0.11571  0.31141  0.47753  1.0000
  O   O12       1.0  0.11553  0.52245  0.68859  1.0000
  O   O13       1.0  0.02459  0.52243  0.59764  1.0000
  C   C1        1.0  0.07006  0.54931  0.64311  1.0000
  C   C2        1.0  0.07009  0.63163  0.64309  1.0000
  C   C3        1.0  0.87775  0.35687  0.64312  1.0000
  C   C4        1.0  0.79544  0.35688  0.64312  1.0000
  C   C5        1.0  0.07021  0.35689  0.44992  1.0000
  C   C6        1.0  0.07022  0.35688  0.36761  1.0000
  C   C7        1.0  0.49635  0.35692  0.64306  1.0000
  C   C8        1.0  0.52767  0.29941  0.70000  1.0000
  C   C9        1.0  0.61329  0.29957  0.70025  1.0000
  C   C10       1.0  0.64473  0.35690  0.64309  1.0000
  C   C11       1.0  0.61361  0.43491  0.66441  1.0000
  C   C12       1.0  0.52797  0.43459  0.66481  1.0000
  C   C13       1.0  0.52796  0.33711  0.56466  1.0000
  C   C14       1.0  0.61361  0.33537  0.56509  1.0000
  C   C15       1.0  0.72859  0.35689  0.64311  1.0000
  C   C16       1.0  0.41249  0.35694  0.64305  1.0000
  C   C17       1.0  0.26332  0.35693  0.64305  1.0000
  C   C18       1.0  0.34564  0.35695  0.64303  1.0000
  C   C19       1.0  0.07028  0.16374  0.64305  1.0000
  C   C20       1.0  0.07033  0.08143  0.64303  1.0000
  C   C21       1.0  0.07025  0.93072  0.64305  1.0000
  C   C22       1.0  0.01316  0.89941  0.58569  1.0000
  C   C23       1.0  0.01289  0.81379  0.58587  1.0000
  C   C24       1.0  0.07017  0.78234  0.64307  1.0000
  C   C25       1.0  0.04904  0.81347  0.72112  1.0000
  C   C26       1.0  0.04867  0.89912  0.72078  1.0000
  C   C27       1.0  0.14859  0.89907  0.62305  1.0000
  C   C28       1.0  0.14813  0.81342  0.62134  1.0000
  C   C29       1.0  0.07013  0.69848  0.64309  1.0000
  C   C30       1.0  0.07029  0.01458  0.64304  1.0000
  C   C31       1.0  0.07027  0.35674  0.06852  1.0000
  C   C32       1.0  0.01280  0.41378  0.09987  1.0000
  C   C33       1.0  0.01296  0.41404  0.18548  1.0000
  C   C34       1.0  0.07024  0.35681  0.21690  1.0000
  C   C35       1.0  0.14827  0.37800  0.18579  1.0000
  C   C36       1.0  0.14795  0.37837  0.10015  1.0000
  C   C37       1.0  0.05038  0.27838  0.10010  1.0000
  C   C38       1.0  0.04865  0.27883  0.18575  1.0000
  C   C39       1.0  0.07024  0.35685  0.30076  1.0000
  C   C40       1.0  0.07028  0.35670  0.98466  1.0000
  C   C41       1.0  0.07016  0.35687  0.83550  1.0000
  C   C42       1.0  0.07029  0.35667  0.91781  1.0000
  H   H1        1.0  0.63433  0.24172  0.68688  1.0000
  H   H2        1.0  0.08745  0.23408  0.20713  1.0000
  H   H3        1.0  0.50639  0.28122  0.54527  1.0000
  H   H4        1.0  0.02625  0.91997  0.52763  1.0000
  O   O14       1.0  0.20747  0.78507  0.67264  1.0000
  H   H5        1.0  0.23455  0.83244  0.70061  1.0000
  O   O15       1.0  0.93597  0.78673  0.60343  1.0000
  H   H6        1.0  0.91523  0.75269  0.55684  1.0000
  H   H7        1.0  0.02611  0.79274  0.52799  1.0000
  H   H8        1.0  0.08845  0.91983  0.76498  1.0000
  O   O16       1.0  0.10238  0.78649  0.77929  1.0000
  H   H9        1.0  0.10098  0.72523  0.78141  1.0000
  O   O17       1.0  0.20497  0.92605  0.67827  1.0000
  H   H10       1.0  0.17738  0.96181  0.71977  1.0000
  O   O18       1.0  0.50145  0.45684  0.74073  1.0000
  H   H11       1.0  0.54980  0.46773  0.77681  1.0000
  O   O19       1.0  0.97399  0.78515  0.74397  1.0000
  H   H12       1.0  0.95161  0.74890  0.69987  1.0000
  O   O20       1.0  0.50113  0.39259  0.50845  1.0000
  H   H13       1.0  0.46545  0.43408  0.53617  1.0000
  O   O21       1.0  0.10582  0.22208  0.07324  1.0000
  H   H14       1.0  0.14733  0.24972  0.03757  1.0000
  H   H15       1.0  0.19224  0.33776  0.20614  1.0000
  H   H16       1.0  0.63503  0.45201  0.72111  1.0000
  H   H17       1.0  0.95545  0.92099  0.59877  1.0000
  O   O22       1.0  0.93632  0.39646  0.21335  1.0000
  H   H18       1.0  0.89882  0.38769  0.16566  1.0000
  O   O23       1.0  0.17099  0.45307  0.21420  1.0000
  H   H19       1.0  0.22624  0.46743  0.19182  1.0000
  O   O24       1.0  0.02999  0.49025  0.07136  1.0000
  H   H20       1.0  0.98204  0.51141  0.03954  1.0000
  O   O25       1.0  0.50051  0.49328  0.61228  1.0000
  H   H21       1.0  0.43920  0.49349  0.61216  1.0000
  H   H22       1.0  0.63396  0.27797  0.54901  1.0000
  O   O26       1.0  0.97259  0.25765  0.21267  1.0000
  H   H23       1.0  0.97618  0.20575  0.24512  1.0000
  H   H24       1.0  0.02608  0.47213  0.20596  1.0000
  H   H25       1.0  0.63397  0.47891  0.62424  1.0000
  O   O27       1.0  0.97632  0.25281  0.07152  1.0000
  H   H26       1.0  0.95286  0.29567  0.03449  1.0000
  H   H27       1.0  0.50710  0.24139  0.68679  1.0000
  H   H28       1.0  0.16406  0.79307  0.56390  1.0000
  H   H29       1.0  0.95477  0.40065  0.07928  1.0000
  O   O28       1.0  0.17026  0.45425  0.07367  1.0000
  H   H30       1.0  0.18118  0.49033  0.12203  1.0000
  O   O29       1.0  0.97282  0.92567  0.74321  1.0000
  H   H31       1.0  0.93674  0.87733  0.75420  1.0000
  H   H32       1.0  0.16786  0.92063  0.56710  1.0000
  H   H33       1.0  0.19222  0.33863  0.07941  1.0000
  H   H34       1.0  0.63374  0.31267  0.75834  1.0000
  O   O30       1.0  0.49915  0.31657  0.77651  1.0000
  H   H35       1.0  0.46276  0.36589  0.77416  1.0000
  O   O31       1.0  0.64194  0.38683  0.50588  1.0000
  H   H36       1.0  0.67880  0.42874  0.53123  1.0000
