data_image0
_chemical_formula_structural       O7Cu2ON2C10NO7Cu2ON2O7Cu2ON2O7Cu2ONC16H3OHOHOH4OH2OH2OHOHOH
_chemical_formula_sum              "O40 Cu8 N8 C26 H16"
_cell_length_a       19.3197
_cell_length_b       19.319
_cell_length_c       19.3156
_cell_angle_alpha    60.0074
_cell_angle_beta     60.0147
_cell_angle_gamma    59.9915

_space_group_name_H-M_alt    "P 1"
_space_group_IT_number       1

loop_
  _space_group_symop_operation_xyz
  'x, y, z'

loop_
  _atom_site_type_symbol
  _atom_site_label
  _atom_site_symmetry_multiplicity
  _atom_site_fract_x
  _atom_site_fract_y
  _atom_site_fract_z
  _atom_site_occupancy
  O   O1        1.0  0.09595  0.98865  0.84568  1.0000
  O   O2        1.0  0.03616  0.21260  0.68139  1.0000
  O   O3        1.0  0.17796  0.07090  0.68128  1.0000
  O   O4        1.0  0.95415  0.13035  0.84580  1.0000
  O   O5        1.0  0.22501  0.11793  0.72821  1.0000
  O   O6        1.0  0.08320  0.25963  0.72832  1.0000
  O   O7        1.0  0.14300  0.03568  0.89262  1.0000
  Cu  Cu1       1.0  0.11740  0.15195  0.81476  1.0000
  Cu  Cu2       1.0  0.06176  0.09633  0.75925  1.0000
  O   O8        1.0  0.00120  0.17738  0.89273  1.0000
  N   N1        1.0  0.15654  0.19107  0.85380  1.0000
  N   N2        1.0  0.02263  0.05721  0.72021  1.0000
  C   C1        1.0  0.18211  0.34680  0.87937  1.0000
  C   C2        1.0  0.18222  0.21661  0.00952  1.0000
  C   C3        1.0  0.31232  0.21662  0.87931  1.0000
  C   C4        1.0  0.18213  0.21663  0.87936  1.0000
  C   C5        1.0  0.21470  0.24916  0.91189  1.0000
  C   C6        1.0  0.86701  0.03186  0.69423  1.0000
  C   C7        1.0  0.99733  0.03167  0.56424  1.0000
  C   C8        1.0  0.99709  0.90156  0.69446  1.0000
  C   C9        1.0  0.99711  0.03168  0.69454  1.0000
  C   C10       1.0  0.96464  0.99919  0.66187  1.0000
  N   N3        1.0  0.38902  0.19106  0.85372  1.0000
  O   O9        1.0  0.66002  0.18323  0.65128  1.0000
  O   O10       1.0  0.66031  0.01843  0.87500  1.0000
  O   O11       1.0  0.66019  0.01881  0.73311  1.0000
  O   O12       1.0  0.66014  0.18285  0.79317  1.0000
  O   O13       1.0  0.51920  0.06572  0.78021  1.0000
  O   O14       1.0  0.51932  0.06534  0.92210  1.0000
  O   O15       1.0  0.51903  0.23015  0.69838  1.0000
  Cu  Cu3       1.0  0.50630  0.15203  0.81454  1.0000
  Cu  Cu4       1.0  0.67304  0.09655  0.75884  1.0000
  O   O16       1.0  0.51915  0.22977  0.84028  1.0000
  N   N4        1.0  0.79031  0.05752  0.71966  1.0000
  N   N5        1.0  0.15651  0.42351  0.85383  1.0000
  O   O17       1.0  0.95418  0.69467  0.84585  1.0000
  O   O18       1.0  0.17789  0.69468  0.68105  1.0000
  O   O19       1.0  0.03597  0.69466  0.68146  1.0000
  O   O20       1.0  0.09610  0.69469  0.84543  1.0000
  O   O21       1.0  0.08302  0.55365  0.72846  1.0000
  O   O22       1.0  0.22495  0.55367  0.72805  1.0000
  O   O23       1.0  0.00123  0.55366  0.89284  1.0000
  Cu  Cu5       1.0  0.11738  0.54080  0.81473  1.0000
  Cu  Cu6       1.0  0.06174  0.70755  0.75916  1.0000
  O   O24       1.0  0.14315  0.55369  0.89243  1.0000
  N   N6        1.0  0.02260  0.82484  0.72007  1.0000
  N   N7        1.0  0.15670  0.19102  0.08622  1.0000
  O   O25       1.0  0.14875  0.98870  0.35736  1.0000
  O   O26       1.0  0.98399  0.21251  0.35740  1.0000
  O   O27       1.0  0.98437  0.07061  0.35734  1.0000
  O   O28       1.0  0.14837  0.13060  0.35742  1.0000
  O   O29       1.0  0.03134  0.11763  0.21634  1.0000
  O   O30       1.0  0.03096  0.25953  0.21640  1.0000
  O   O31       1.0  0.19572  0.03572  0.21636  1.0000
  Cu  Cu7       1.0  0.11763  0.15192  0.20351  1.0000
  Cu  Cu8       1.0  0.06208  0.09631  0.37025  1.0000
  O   O32       1.0  0.19534  0.17762  0.21642  1.0000
  N   N8        1.0  0.02301  0.05720  0.48754  1.0000
  C   C11       1.0  0.05408  0.26433  0.68222  1.0000
  C   C12       1.0  0.22968  0.08885  0.68208  1.0000
  C   C13       1.0  0.12508  0.98395  0.89178  1.0000
  C   C14       1.0  0.94948  0.15943  0.89193  1.0000
  C   C15       1.0  0.58985  0.01919  0.92673  1.0000
  C   C16       1.0  0.58971  0.01966  0.75102  1.0000
  C   C17       1.0  0.58948  0.22939  0.64665  1.0000
  C   C18       1.0  0.58963  0.22892  0.82236  1.0000
  C   C19       1.0  0.22954  0.62435  0.68180  1.0000
  C   C20       1.0  0.05385  0.62415  0.68237  1.0000
  C   C21       1.0  0.94952  0.62417  0.89204  1.0000
  C   C22       1.0  0.12528  0.62419  0.89153  1.0000
  C   C23       1.0  0.98479  0.26421  0.28690  1.0000
  C   C24       1.0  0.98527  0.08850  0.28680  1.0000
  C   C25       1.0  0.19493  0.98402  0.28686  1.0000
  C   C26       1.0  0.19446  0.15974  0.28693  1.0000
  H   H1        1.0  0.29396  0.07618  0.63041  1.0000
  H   H2        1.0  0.29366  0.62475  0.62993  1.0000
  H   H3        1.0  0.04097  0.62415  0.63085  1.0000
  O   O33       1.0  0.91625  0.34935  0.28693  1.0000
  H   H4        1.0  0.93900  0.39972  0.22948  1.0000
  O   O34       1.0  0.86441  0.62418  0.96057  1.0000
  H   H5        1.0  0.82281  0.62419  0.93661  1.0000
  O   O35       1.0  0.86433  0.17621  0.96037  1.0000
  H   H6        1.0  0.81398  0.19189  0.93757  1.0000
  H   H7        1.0  0.04130  0.32866  0.63062  1.0000
  H   H8        1.0  0.13815  0.62421  0.94304  1.0000
  H   H9        1.0  0.93377  0.07569  0.28672  1.0000
  O   O36       1.0  0.58936  0.29793  0.56155  1.0000
  H   H10       1.0  0.64679  0.31594  0.53194  1.0000
  H   H11       1.0  0.58962  0.28045  0.83522  1.0000
  O   O37       1.0  0.26345  0.89887  0.28686  1.0000
  H   H12       1.0  0.23948  0.85730  0.28684  1.0000
  H   H13       1.0  0.58993  0.96745  0.99099  1.0000
  O   O38       1.0  0.26271  0.17672  0.28695  1.0000
  H   H14       1.0  0.27807  0.23076  0.22949  1.0000
  O   O39       1.0  0.14200  0.89874  0.96014  1.0000
  H   H15       1.0  0.15767  0.84843  0.93729  1.0000
  O   O40       1.0  0.58973  0.95139  0.73400  1.0000
  H   H16       1.0  0.58965  0.97565  0.66842  1.0000
