data_image0
_chemical_formula_structural       VO4VO6C32H3OC2H8OC2H6OC2H8OC2H5OC2H5OC2H6OC2H7VO4VO6C32H3OC2H8OC2H6OC2H8OC2H5OC2H5OC2H6OC2H7
_chemical_formula_sum              "V4 O34 C92 H96"
_cell_length_a       13.6358
_cell_length_b       17.1105
_cell_length_c       17.3294
_cell_angle_alpha    92.6729
_cell_angle_beta     103.026
_cell_angle_gamma    99.0603

_space_group_name_H-M_alt    "P 1"
_space_group_IT_number       1

loop_
  _space_group_symop_operation_xyz
  'x, y, z'

loop_
  _atom_site_type_symbol
  _atom_site_label
  _atom_site_symmetry_multiplicity
  _atom_site_fract_x
  _atom_site_fract_y
  _atom_site_fract_z
  _atom_site_occupancy
  V   V1        1.0  0.00425  0.90669  0.75506  1.0000
  O   O1        1.0  0.49882  0.02113  0.75962  1.0000
  O   O2        1.0  0.03928  0.79897  0.75683  1.0000
  O   O3        1.0  0.03117  0.91542  0.64818  1.0000
  O   O4        1.0  0.00699  0.90386  0.86902  1.0000
  V   V2        1.0  0.26068  0.91951  0.76868  1.0000
  O   O5        1.0  0.37759  0.87855  0.72518  1.0000
  O   O6        1.0  0.16225  0.94765  0.79855  1.0000
  O   O7        1.0  0.33726  0.02723  0.76690  1.0000
  O   O8        1.0  0.20741  0.80507  0.76412  1.0000
  O   O9        1.0  0.19925  0.92233  0.65472  1.0000
  O   O10       1.0  0.34537  0.91077  0.87555  1.0000
  C   C1        1.0  0.11932  0.77248  0.76072  1.0000
  C   C2        1.0  0.10733  0.68446  0.76146  1.0000
  C   C3        1.0  0.10898  0.92103  0.62213  1.0000
  C   C4        1.0  0.09041  0.92746  0.53476  1.0000
  C   C5        1.0  0.06919  0.85876  0.48256  1.0000
  C   C6        1.0  0.05174  0.86480  0.40047  1.0000
  C   C7        1.0  0.05553  0.93956  0.37058  1.0000
  C   C8        1.0  0.07675  0.00827  0.42279  1.0000
  C   C9        1.0  0.09419  0.00222  0.50488  1.0000
  C   C10       1.0  0.00349  0.96140  0.12328  1.0000
  C   C11       1.0  0.48606  0.96744  0.04118  1.0000
  C   C12       1.0  0.46105  0.82398  0.01886  1.0000
  C   C13       1.0  0.47850  0.81794  0.10096  1.0000
  C   C14       1.0  0.49971  0.88665  0.15316  1.0000
  C   C15       1.0  0.03770  0.94574  0.28667  1.0000
  C   C16       1.0  0.01753  0.88046  0.23707  1.0000
  C   C17       1.0  0.01116  0.63934  0.75789  1.0000
  C   C18       1.0  0.49990  0.55664  0.75858  1.0000
  C   C19       1.0  0.08482  0.51906  0.76285  1.0000
  C   C20       1.0  0.18100  0.56419  0.76642  1.0000
  C   C21       1.0  0.19225  0.64689  0.76572  1.0000
  C   C22       1.0  0.05536  0.26956  0.76514  1.0000
  C   C23       1.0  0.04409  0.18685  0.76584  1.0000
  C   C24       1.0  0.36299  0.17931  0.75800  1.0000
  C   C25       1.0  0.37426  0.26201  0.75731  1.0000
  C   C26       1.0  0.47044  0.30713  0.76088  1.0000
  C   C27       1.0  0.07331  0.43453  0.76356  1.0000
  C   C28       1.0  0.48194  0.39166  0.76016  1.0000
  C   C29       1.0  0.42555  0.05371  0.76301  1.0000
  C   C30       1.0  0.44792  0.14173  0.76227  1.0000
  C   C31       1.0  0.43589  0.90516  0.90161  1.0000
  C   C32       1.0  0.46483  0.89873  0.98898  1.0000
  H   H1        1.0  0.06611  0.79789  0.50689  1.0000
  H   H2        1.0  0.07983  0.06913  0.39845  1.0000
  H   H3        1.0  0.11324  0.15626  0.76929  1.0000
  O   O11       1.0  0.14884  0.31335  0.76875  1.0000
  C   C33       1.0  0.32328  0.35128  0.84361  1.0000
  C   C34       1.0  0.21745  0.30165  0.83963  1.0000
  H   H4        1.0  0.37879  0.34182  0.90091  1.0000
  H   H5        1.0  0.31683  0.41686  0.84244  1.0000
  H   H6        1.0  0.35259  0.33185  0.79041  1.0000
  H   H7        1.0  0.18808  0.32101  0.89282  1.0000
  H   H8        1.0  0.22397  0.23608  0.84077  1.0000
  H   H9        1.0  0.14245  0.40393  0.76703  1.0000
  H   H10       1.0  0.01445  0.81960  0.26141  1.0000
  H   H11       1.0  0.41280  0.42226  0.75669  1.0000
  O   O12       1.0  0.03119  0.79798  0.34987  1.0000
  C   C35       1.0  0.00819  0.65505  0.33640  1.0000
  C   C36       1.0  0.03150  0.73066  0.39379  1.0000
  H   H12       1.0  0.00841  0.60060  0.37188  1.0000
  H   H13       1.0  0.06893  0.65707  0.30049  1.0000
  H   H14       1.0  0.42990  0.65150  0.29432  1.0000
  H   H15       1.0  0.10976  0.73426  0.43591  1.0000
  H   H16       1.0  0.47069  0.72860  0.42964  1.0000
  H   H17       1.0  0.47541  0.75706  0.12529  1.0000
  O   O13       1.0  0.44037  0.75731  0.96804  1.0000
  C   C37       1.0  0.40248  0.70304  0.83169  1.0000
  C   C38       1.0  0.42586  0.77860  0.88915  1.0000
  H   H18       1.0  0.39076  0.72023  0.76790  1.0000
  H   H19       1.0  0.33019  0.66364  0.83920  1.0000
  H   H20       1.0  0.46925  0.66930  0.84544  1.0000
  H   H21       1.0  0.35915  0.81240  0.87543  1.0000
  H   H22       1.0  0.49819  0.81794  0.88163  1.0000
  H   H23       1.0  0.11147  0.05817  0.54738  1.0000
  H   H24       1.0  0.48912  0.02831  0.01685  1.0000
  H   H25       1.0  0.02077  0.01735  0.16577  1.0000
  O   O14       1.0  0.40647  0.51276  0.75500  1.0000
  C   C39       1.0  0.27248  0.40873  0.68291  1.0000
  C   C40       1.0  0.37828  0.45839  0.68685  1.0000
  H   H26       1.0  0.24967  0.36475  0.62783  1.0000
  H   H27       1.0  0.21366  0.44974  0.67970  1.0000
  H   H28       1.0  0.27583  0.37490  0.73832  1.0000
  H   H29       1.0  0.37504  0.49222  0.63145  1.0000
  H   H30       1.0  0.43706  0.41733  0.69010  1.0000
  O   O15       1.0  0.04122  0.01830  0.25753  1.0000
  C   C41       1.0  0.44996  0.10488  0.17402  1.0000
  C   C42       1.0  0.44585  0.02267  0.20695  1.0000
  H   H31       1.0  0.37286  0.10846  0.13314  1.0000
  H   H32       1.0  0.01188  0.11414  0.13916  1.0000
  H   H33       1.0  0.46818  0.15295  0.22544  1.0000
  H   H34       1.0  0.42760  0.97456  0.15558  1.0000
  H   H35       1.0  0.38395  0.01349  0.24184  1.0000
  O   O16       1.0  0.42872  0.67592  0.75365  1.0000
  C   C43       1.0  0.32008  0.75863  0.67990  1.0000
  C   C44       1.0  0.41348  0.71727  0.68462  1.0000
  H   H36       1.0  0.30772  0.79206  0.62408  1.0000
  H   H37       1.0  0.33389  0.80224  0.73459  1.0000
  H   H38       1.0  0.24943  0.71216  0.67750  1.0000
  H   H39       1.0  0.48417  0.76369  0.68699  1.0000
  H   H40       1.0  0.39959  0.67365  0.62993  1.0000
  H   H41       1.0  0.25014  0.53359  0.76988  1.0000
  O   O17       1.0  0.29182  0.29859  0.75306  1.0000
  C   C45       1.0  0.18321  0.38132  0.67931  1.0000
  C   C46       1.0  0.27660  0.33995  0.68403  1.0000
  H   H42       1.0  0.17086  0.41475  0.62349  1.0000
  H   H43       1.0  0.19703  0.42493  0.73400  1.0000
  H   H44       1.0  0.11255  0.33486  0.67691  1.0000
  H   H45       1.0  0.34730  0.38635  0.68640  1.0000
  H   H46       1.0  0.26270  0.29632  0.62934  1.0000
  H   H47       1.0  0.28469  0.14256  0.75510  1.0000
  H   H48       1.0  0.27057  0.68363  0.76862  1.0000
  V   V3        1.0  0.50425  0.90669  0.75506  1.0000
  O   O18       1.0  0.99882  0.02113  0.75962  1.0000
  O   O19       1.0  0.53928  0.79897  0.75683  1.0000
  O   O20       1.0  0.53117  0.91542  0.64818  1.0000
  O   O21       1.0  0.50699  0.90386  0.86902  1.0000
  V   V4        1.0  0.76068  0.91951  0.76868  1.0000
  O   O22       1.0  0.87759  0.87855  0.72518  1.0000
  O   O23       1.0  0.66225  0.94765  0.79855  1.0000
  O   O24       1.0  0.83726  0.02723  0.76690  1.0000
  O   O25       1.0  0.70741  0.80507  0.76412  1.0000
  O   O26       1.0  0.69925  0.92233  0.65472  1.0000
  O   O27       1.0  0.84537  0.91077  0.87555  1.0000
  C   C47       1.0  0.61932  0.77248  0.76072  1.0000
  C   C48       1.0  0.60733  0.68446  0.76146  1.0000
  C   C49       1.0  0.60898  0.92103  0.62213  1.0000
  C   C50       1.0  0.59041  0.92746  0.53476  1.0000
  C   C51       1.0  0.56919  0.85876  0.48256  1.0000
  C   C52       1.0  0.55174  0.86480  0.40047  1.0000
  C   C53       1.0  0.55553  0.93956  0.37058  1.0000
  C   C54       1.0  0.57675  0.00827  0.42279  1.0000
  C   C55       1.0  0.59419  0.00222  0.50488  1.0000
  C   C56       1.0  0.50349  0.96140  0.12328  1.0000
  C   C57       1.0  0.98606  0.96744  0.04118  1.0000
  C   C58       1.0  0.96105  0.82398  0.01886  1.0000
  C   C59       1.0  0.97850  0.81794  0.10096  1.0000
  C   C60       1.0  0.99971  0.88665  0.15316  1.0000
  C   C61       1.0  0.53770  0.94574  0.28667  1.0000
  C   C62       1.0  0.51753  0.88046  0.23707  1.0000
  C   C63       1.0  0.51116  0.63934  0.75789  1.0000
  C   C64       1.0  0.99990  0.55664  0.75858  1.0000
  C   C65       1.0  0.58482  0.51906  0.76285  1.0000
  C   C66       1.0  0.68100  0.56419  0.76642  1.0000
  C   C67       1.0  0.69225  0.64689  0.76572  1.0000
  C   C68       1.0  0.55536  0.26956  0.76514  1.0000
  C   C69       1.0  0.54409  0.18685  0.76584  1.0000
  C   C70       1.0  0.86299  0.17931  0.75800  1.0000
  C   C71       1.0  0.87426  0.26201  0.75731  1.0000
  C   C72       1.0  0.97044  0.30713  0.76088  1.0000
  C   C73       1.0  0.57331  0.43453  0.76356  1.0000
  C   C74       1.0  0.98194  0.39166  0.76016  1.0000
  C   C75       1.0  0.92555  0.05371  0.76301  1.0000
  C   C76       1.0  0.94792  0.14173  0.76227  1.0000
  C   C77       1.0  0.93589  0.90516  0.90161  1.0000
  C   C78       1.0  0.96483  0.89873  0.98898  1.0000
  H   H49       1.0  0.56611  0.79789  0.50689  1.0000
  H   H50       1.0  0.57983  0.06913  0.39845  1.0000
  H   H51       1.0  0.61324  0.15626  0.76929  1.0000
  O   O28       1.0  0.64884  0.31335  0.76875  1.0000
  C   C79       1.0  0.82328  0.35128  0.84361  1.0000
  C   C80       1.0  0.71745  0.30165  0.83963  1.0000
  H   H52       1.0  0.87879  0.34182  0.90091  1.0000
  H   H53       1.0  0.81683  0.41686  0.84244  1.0000
  H   H54       1.0  0.85259  0.33185  0.79041  1.0000
  H   H55       1.0  0.68808  0.32101  0.89282  1.0000
  H   H56       1.0  0.72397  0.23608  0.84077  1.0000
  H   H57       1.0  0.64245  0.40393  0.76703  1.0000
  H   H58       1.0  0.51445  0.81960  0.26141  1.0000
  H   H59       1.0  0.91280  0.42226  0.75669  1.0000
  O   O29       1.0  0.53119  0.79798  0.34987  1.0000
  C   C81       1.0  0.50819  0.65505  0.33640  1.0000
  C   C82       1.0  0.53150  0.73066  0.39379  1.0000
  H   H60       1.0  0.50841  0.60060  0.37188  1.0000
  H   H61       1.0  0.56893  0.65707  0.30049  1.0000
  H   H62       1.0  0.92990  0.65150  0.29432  1.0000
  H   H63       1.0  0.60976  0.73426  0.43591  1.0000
  H   H64       1.0  0.97069  0.72860  0.42964  1.0000
  H   H65       1.0  0.97541  0.75706  0.12529  1.0000
  O   O30       1.0  0.94037  0.75731  0.96804  1.0000
  C   C83       1.0  0.90248  0.70304  0.83169  1.0000
  C   C84       1.0  0.92586  0.77860  0.88915  1.0000
  H   H66       1.0  0.89076  0.72023  0.76790  1.0000
  H   H67       1.0  0.83019  0.66364  0.83920  1.0000
  H   H68       1.0  0.96925  0.66930  0.84544  1.0000
  H   H69       1.0  0.85915  0.81240  0.87543  1.0000
  H   H70       1.0  0.99819  0.81794  0.88163  1.0000
  H   H71       1.0  0.61147  0.05817  0.54738  1.0000
  H   H72       1.0  0.98912  0.02831  0.01685  1.0000
  H   H73       1.0  0.52077  0.01735  0.16577  1.0000
  O   O31       1.0  0.90647  0.51276  0.75500  1.0000
  C   C85       1.0  0.77248  0.40873  0.68291  1.0000
  C   C86       1.0  0.87828  0.45839  0.68685  1.0000
  H   H74       1.0  0.74967  0.36475  0.62783  1.0000
  H   H75       1.0  0.71366  0.44974  0.67970  1.0000
  H   H76       1.0  0.77583  0.37490  0.73832  1.0000
  H   H77       1.0  0.87504  0.49222  0.63145  1.0000
  H   H78       1.0  0.93706  0.41733  0.69010  1.0000
  O   O32       1.0  0.54122  0.01830  0.25753  1.0000
  C   C87       1.0  0.94996  0.10488  0.17402  1.0000
  C   C88       1.0  0.94585  0.02267  0.20695  1.0000
  H   H79       1.0  0.87286  0.10846  0.13314  1.0000
  H   H80       1.0  0.51188  0.11414  0.13916  1.0000
  H   H81       1.0  0.96818  0.15295  0.22544  1.0000
  H   H82       1.0  0.92760  0.97456  0.15558  1.0000
  H   H83       1.0  0.88395  0.01349  0.24184  1.0000
  O   O33       1.0  0.92872  0.67592  0.75365  1.0000
  C   C89       1.0  0.82008  0.75863  0.67990  1.0000
  C   C90       1.0  0.91348  0.71727  0.68462  1.0000
  H   H84       1.0  0.80772  0.79206  0.62408  1.0000
  H   H85       1.0  0.83389  0.80224  0.73459  1.0000
  H   H86       1.0  0.74943  0.71216  0.67750  1.0000
  H   H87       1.0  0.98417  0.76369  0.68699  1.0000
  H   H88       1.0  0.89959  0.67365  0.62993  1.0000
  H   H89       1.0  0.75014  0.53359  0.76988  1.0000
  O   O34       1.0  0.79182  0.29859  0.75306  1.0000
  C   C91       1.0  0.68321  0.38132  0.67931  1.0000
  C   C92       1.0  0.77660  0.33995  0.68403  1.0000
  H   H90       1.0  0.67086  0.41475  0.62349  1.0000
  H   H91       1.0  0.69703  0.42493  0.73400  1.0000
  H   H92       1.0  0.61255  0.33486  0.67691  1.0000
  H   H93       1.0  0.84730  0.38635  0.68640  1.0000
  H   H94       1.0  0.76270  0.29632  0.62934  1.0000
  H   H95       1.0  0.78469  0.14256  0.75510  1.0000
  H   H96       1.0  0.77057  0.68363  0.76862  1.0000
