data_image0
_chemical_formula_structural       ZrO12Zr5O20C56H5C6H12C6H5C6H7C6H17
_chemical_formula_sum              "Zr6 O32 C80 H46"
_cell_length_a       20.9193
_cell_length_b       12.9705
_cell_length_c       12.9705
_cell_angle_alpha    59.9998
_cell_angle_beta     89.9988
_cell_angle_gamma    57.4413

_space_group_name_H-M_alt    "P 1"
_space_group_IT_number       1

loop_
  _space_group_symop_operation_xyz
  'x, y, z'

loop_
  _atom_site_type_symbol
  _atom_site_label
  _atom_site_symmetry_multiplicity
  _atom_site_fract_x
  _atom_site_fract_y
  _atom_site_fract_z
  _atom_site_occupancy
  Zr  Zr1       1.0  0.64176  0.04796  0.90495  1.0000
  O   O1        1.0  0.53539  0.27641  0.73366  1.0000
  O   O2        1.0  0.67437  0.82878  0.95747  1.0000
  O   O3        1.0  0.67437  0.04387  0.74238  1.0000
  O   O4        1.0  0.53539  0.06132  0.11842  1.0000
  O   O5        1.0  0.78400  0.03011  0.74925  1.0000
  O   O6        1.0  0.53539  0.06132  0.94875  1.0000
  O   O7        1.0  0.78400  0.64535  0.13401  1.0000
  O   O8        1.0  0.53539  0.44607  0.73366  1.0000
  O   O9        1.0  0.77009  0.90524  0.98500  1.0000
  O   O10       1.0  0.68828  0.91551  0.10648  1.0000
  O   O11       1.0  0.68828  0.16875  0.85324  1.0000
  O   O12       1.0  0.60647  0.17902  0.97473  1.0000
  Zr  Zr2       1.0  0.81661  0.02602  0.18652  1.0000
  Zr  Zr3       1.0  0.81661  0.02602  0.91592  1.0000
  Zr  Zr4       1.0  0.64176  0.04797  0.17555  1.0000
  Zr  Zr5       1.0  0.64177  0.31856  0.90495  1.0000
  Zr  Zr6       1.0  0.81661  0.75542  0.18652  1.0000
  O   O13       1.0  0.78400  0.24520  0.13401  1.0000
  O   O14       1.0  0.78400  0.24520  0.74925  1.0000
  O   O15       1.0  0.53539  0.27641  0.11841  1.0000
  O   O16       1.0  0.92298  0.79758  0.35782  1.0000
  O   O17       1.0  0.92298  0.79757  0.97306  1.0000
  O   O18       1.0  0.67437  0.82878  0.34222  1.0000
  O   O19       1.0  0.92298  0.01266  0.97306  1.0000
  O   O20       1.0  0.78400  0.03011  0.34910  1.0000
  O   O21       1.0  0.67437  0.04387  0.34222  1.0000
  O   O22       1.0  0.92298  0.01267  0.14273  1.0000
  O   O23       1.0  0.67437  0.42863  0.74238  1.0000
  O   O24       1.0  0.78400  0.64535  0.34910  1.0000
  O   O25       1.0  0.92298  0.62791  0.35782  1.0000
  O   O26       1.0  0.92298  0.62791  0.14273  1.0000
  O   O27       1.0  0.53539  0.44607  0.94875  1.0000
  O   O28       1.0  0.67437  0.42863  0.95747  1.0000
  O   O29       1.0  0.77009  0.90524  0.23824  1.0000
  O   O30       1.0  0.85191  0.89497  0.11675  1.0000
  O   O31       1.0  0.77009  0.15848  0.98499  1.0000
  O   O32       1.0  0.68828  0.16875  0.10648  1.0000
  C   C1        1.0  0.72919  0.69851  0.04574  1.0000
  C   C2        1.0  0.72919  0.58364  0.04574  1.0000
  C   C3        1.0  0.51048  0.06444  0.03202  1.0000
  C   C4        1.0  0.43625  0.07376  0.02736  1.0000
  C   C5        1.0  0.44409  0.94059  0.09394  1.0000
  C   C6        1.0  0.37434  0.94936  0.08956  1.0000
  C   C7        1.0  0.29676  0.09129  0.01860  1.0000
  C   C8        1.0  0.28893  0.22447  0.95202  1.0000
  C   C9        1.0  0.35868  0.21570  0.95640  1.0000
  C   C10       1.0  0.08404  0.12464  0.00192  1.0000
  C   C11       1.0  0.01429  0.13339  0.99753  1.0000
  C   C12       1.0  0.09970  0.85828  0.13509  1.0000
  C   C13       1.0  0.16945  0.84952  0.13946  1.0000
  C   C14       1.0  0.16161  0.98270  0.07288  1.0000
  C   C15       1.0  0.22547  0.10025  0.01412  1.0000
  C   C16       1.0  0.23290  0.97374  0.07737  1.0000
  C   C17       1.0  0.94789  0.00954  0.05946  1.0000
  C   C18       1.0  0.02212  0.00022  0.06412  1.0000
  C   C19       1.0  0.72919  0.03699  0.70726  1.0000
  C   C20       1.0  0.72919  0.03699  0.59238  1.0000
  C   C21       1.0  0.72919  0.37547  0.04574  1.0000
  C   C22       1.0  0.72919  0.49035  0.04574  1.0000
  C   C23       1.0  0.72919  0.03699  0.38422  1.0000
  C   C24       1.0  0.72918  0.03699  0.49909  1.0000
  C   C25       1.0  0.94789  0.67106  0.05946  1.0000
  C   C26       1.0  0.02212  0.54687  0.06412  1.0000
  C   C27       1.0  0.72919  0.69851  0.38422  1.0000
  C   C28       1.0  0.72918  0.58364  0.49910  1.0000
  C   C29       1.0  0.94789  0.67106  0.39794  1.0000
  C   C30       1.0  0.02212  0.54687  0.51747  1.0000
  C   C31       1.0  0.51048  0.40292  0.69354  1.0000
  C   C32       1.0  0.43626  0.52711  0.57401  1.0000
  C   C33       1.0  0.51048  0.40292  0.03202  1.0000
  C   C34       1.0  0.43625  0.52712  0.02736  1.0000
  C   C35       1.0  0.72919  0.37547  0.70726  1.0000
  C   C36       1.0  0.72919  0.49035  0.59238  1.0000
  C   C37       1.0  0.01427  0.49390  0.99752  1.0000
  C   C38       1.0  0.08401  0.37722  0.00187  1.0000
  C   C39       1.0  0.16159  0.31350  0.07283  1.0000
  C   C40       1.0  0.16944  0.36648  0.13943  1.0000
  C   C41       1.0  0.09970  0.48316  0.13507  1.0000
  C   C42       1.0  0.09969  0.48318  0.51019  1.0000
  C   C43       1.0  0.16944  0.36650  0.62250  1.0000
  C   C44       1.0  0.16162  0.31351  0.74208  1.0000
  C   C45       1.0  0.08404  0.37720  0.74936  1.0000
  C   C46       1.0  0.01429  0.49389  0.63705  1.0000
  C   C47       1.0  0.35868  0.59081  0.58129  1.0000
  C   C48       1.0  0.28893  0.70752  0.46898  1.0000
  C   C49       1.0  0.29676  0.76053  0.34940  1.0000
  C   C50       1.0  0.37434  0.69683  0.34212  1.0000
  C   C51       1.0  0.44409  0.58012  0.45442  1.0000
  C   C52       1.0  0.44410  0.58009  0.09395  1.0000
  C   C53       1.0  0.37436  0.69680  0.08957  1.0000
  C   C54       1.0  0.29678  0.76052  0.01861  1.0000
  C   C55       1.0  0.28893  0.70754  0.95201  1.0000
  C   C56       1.0  0.35867  0.59085  0.95639  1.0000
  H   H1        1.0  0.50725  0.82501  0.15174  1.0000
  H   H2        1.0  0.07768  0.33403  0.84674  1.0000
  H   H3        1.0  0.22575  0.75945  0.89424  1.0000
  H   H4        1.0  0.23996  0.85556  0.25796  1.0000
  H   H5        1.0  0.10608  0.52632  0.41283  1.0000
  C   C57       1.0  0.25477  0.29645  0.61447  1.0000
  C   C58       1.0  0.26337  0.35474  0.48293  1.0000
  C   C59       1.0  0.34870  0.28468  0.47490  1.0000
  C   C60       1.0  0.42543  0.15634  0.59841  1.0000
  C   C61       1.0  0.41683  0.09805  0.72996  1.0000
  C   C62       1.0  0.33150  0.16810  0.73799  1.0000
  H   H6        1.0  0.20657  0.44975  0.39148  1.0000
  H   H7        1.0  0.35506  0.32784  0.37751  1.0000
  H   H8        1.0  0.48859  0.10448  0.59247  1.0000
  H   H9        1.0  0.47364  0.00303  0.82141  1.0000
  H   H10       1.0  0.32514  0.12494  0.83538  1.0000
  H   H11       1.0  0.38070  0.74000  0.24474  1.0000
  H   H12       1.0  0.21842  0.21849  0.83351  1.0000
  H   H13       1.0  0.50725  0.52826  0.44848  1.0000
  H   H14       1.0  0.95113  0.54572  0.64300  1.0000
  H   H15       1.0  0.23262  0.31458  0.19720  1.0000
  H   H16       1.0  0.10607  0.74985  0.18929  1.0000
  H   H17       1.0  0.35230  0.54766  0.67865  1.0000
  C   C63       1.0  0.20360  0.77757  0.47701  1.0000
  C   C64       1.0  0.19501  0.71923  0.60855  1.0000
  C   C65       1.0  0.10968  0.78927  0.61658  1.0000
  C   C66       1.0  0.03295  0.91764  0.49307  1.0000
  C   C67       1.0  0.04154  0.97598  0.36151  1.0000
  C   C68       1.0  0.12687  0.90595  0.35348  1.0000
  H   H18       1.0  0.25181  0.62420  0.69999  1.0000
  H   H19       1.0  0.10332  0.74608  0.71397  1.0000
  H   H20       1.0  0.96978  0.96949  0.49901  1.0000
  H   H21       1.0  0.98474  0.07102  0.27007  1.0000
  H   H22       1.0  0.13323  0.94914  0.25610  1.0000
  C   C69       1.0  0.92895  0.28953  0.91944  1.0000
  C   C70       1.0  0.92032  0.43602  0.84618  1.0000
  C   C71       1.0  0.83499  0.59215  0.76807  1.0000
  C   C72       1.0  0.75827  0.60178  0.76322  1.0000
  C   C73       1.0  0.76689  0.45528  0.83647  1.0000
  C   C74       1.0  0.85223  0.29916  0.91458  1.0000
  H   H23       1.0  0.97712  0.42889  0.84978  1.0000
  H   H24       1.0  0.82861  0.70060  0.71384  1.0000
  H   H25       1.0  0.69510  0.71736  0.70539  1.0000
  H   H26       1.0  0.71010  0.46241  0.83288  1.0000
  H   H27       1.0  0.85861  0.19071  0.96882  1.0000
  H   H28       1.0  0.95110  0.54578  0.93972  1.0000
  H   H29       1.0  0.10611  0.52627  0.18931  1.0000
  C   C75       1.0  0.52944  0.51002  0.17200  1.0000
  C   C76       1.0  0.53806  0.56832  0.24522  1.0000
  C   C77       1.0  0.62339  0.49827  0.32327  1.0000
  C   C78       1.0  0.70011  0.36991  0.32810  1.0000
  C   C79       1.0  0.69150  0.31159  0.25488  1.0000
  C   C80       1.0  0.60616  0.38165  0.17683  1.0000
  H   H30       1.0  0.48126  0.66335  0.24165  1.0000
  H   H31       1.0  0.62977  0.54144  0.37748  1.0000
  H   H32       1.0  0.76328  0.31805  0.38588  1.0000
  H   H33       1.0  0.74829  0.21657  0.25845  1.0000
  H   H34       1.0  0.59979  0.33848  0.12262  1.0000
  H   H35       1.0  0.38072  0.84091  0.14378  1.0000
  H   H36       1.0  0.23261  0.73395  0.19722  1.0000
  H   H37       1.0  0.07764  0.23308  0.94769  1.0000
  H   H38       1.0  0.22576  0.34003  0.89424  1.0000
  H   H39       1.0  0.35227  0.54772  0.90217  1.0000
  H   H40       1.0  0.38077  0.73991  0.14380  1.0000
  H   H41       1.0  0.24000  0.85554  0.01506  1.0000
  H   H42       1.0  0.21837  0.21849  0.07637  1.0000
  H   H43       1.0  0.29607  0.85818  0.13516  1.0000
  H   H44       1.0  0.35229  0.32414  0.90220  1.0000
  H   H45       1.0  0.16229  0.21581  0.95634  1.0000
  H   H46       1.0  0.07760  0.33411  0.94764  1.0000
