data_image0
_chemical_formula_structural       Zn8O26C84H6O2C2H6O2C2H6O2C2H26O2C2H10O2C2H22O2C2H8
_chemical_formula_sum              "Zn8 O38 C96 H84"
_cell_length_a       18.1014
_cell_length_b       18.1014
_cell_length_c       18.0506
_cell_angle_alpha    90.0868
_cell_angle_beta     90.0526
_cell_angle_gamma    90.0259

_space_group_name_H-M_alt    "P 1"
_space_group_IT_number       1

loop_
  _space_group_symop_operation_xyz
  'x, y, z'

loop_
  _atom_site_type_symbol
  _atom_site_label
  _atom_site_symmetry_multiplicity
  _atom_site_fract_x
  _atom_site_fract_y
  _atom_site_fract_z
  _atom_site_occupancy
  Zn  Zn1       1.0  0.86756  0.29450  0.58028  1.0000
  Zn  Zn2       1.0  0.36756  0.79450  0.08028  1.0000
  Zn  Zn3       1.0  0.86776  0.41848  0.70447  1.0000
  Zn  Zn4       1.0  0.36776  0.91848  0.20447  1.0000
  Zn  Zn5       1.0  0.99149  0.29464  0.70444  1.0000
  Zn  Zn6       1.0  0.49149  0.79464  0.20444  1.0000
  Zn  Zn7       1.0  0.99145  0.41829  0.58030  1.0000
  Zn  Zn8       1.0  0.49145  0.91829  0.08030  1.0000
  O   O1        1.0  0.92956  0.35648  0.64237  1.0000
  O   O2        1.0  0.42956  0.85648  0.14237  1.0000
  O   O3        1.0  0.76395  0.31096  0.59677  1.0000
  O   O4        1.0  0.26395  0.81096  0.09677  1.0000
  O   O5        1.0  0.88427  0.40219  0.80839  1.0000
  O   O6        1.0  0.38427  0.90218  0.30839  1.0000
  O   O7        1.0  0.97499  0.19099  0.68795  1.0000
  O   O8        1.0  0.47499  0.69099  0.18795  1.0000
  O   O9        1.0  0.76410  0.40205  0.68801  1.0000
  O   O10       1.0  0.26410  0.90205  0.18801  1.0000
  O   O11       1.0  0.88393  0.19088  0.59673  1.0000
  O   O12       1.0  0.38393  0.69088  0.09673  1.0000
  O   O13       1.0  0.97518  0.31121  0.80837  1.0000
  O   O14       1.0  0.47518  0.81120  0.30837  1.0000
  O   O15       1.0  0.09512  0.31103  0.68796  1.0000
  O   O16       1.0  0.59512  0.81103  0.18796  1.0000
  O   O17       1.0  0.97491  0.40173  0.47637  1.0000
  O   O18       1.0  0.47491  0.90173  0.97637  1.0000
  O   O19       1.0  0.09509  0.40187  0.59676  1.0000
  O   O20       1.0  0.59509  0.90187  0.09676  1.0000
  O   O21       1.0  0.88389  0.31078  0.47636  1.0000
  O   O22       1.0  0.38389  0.81078  0.97636  1.0000
  O   O23       1.0  0.88423  0.52208  0.68802  1.0000
  O   O24       1.0  0.38423  0.02208  0.18802  1.0000
  O   O25       1.0  0.97510  0.52195  0.59679  1.0000
  O   O26       1.0  0.47510  0.02195  0.09679  1.0000
  C   C1        1.0  0.12197  0.35645  0.64236  1.0000
  C   C2        1.0  0.62197  0.85645  0.14236  1.0000
  C   C3        1.0  0.20429  0.35645  0.64234  1.0000
  C   C4        1.0  0.70429  0.85645  0.14234  1.0000
  C   C5        1.0  0.50338  0.35649  0.64236  1.0000
  C   C6        1.0  0.00338  0.85649  0.14236  1.0000
  C   C7        1.0  0.47201  0.41392  0.58526  1.0000
  C   C8        1.0  0.97201  0.91392  0.08526  1.0000
  C   C9        1.0  0.38639  0.41374  0.58503  1.0000
  C   C10       1.0  0.88639  0.91375  0.08503  1.0000
  C   C11       1.0  0.35500  0.35647  0.64235  1.0000
  C   C12       1.0  0.85500  0.85647  0.14235  1.0000
  C   C13       1.0  0.38604  0.27844  0.62096  1.0000
  C   C14       1.0  0.88604  0.77845  0.12096  1.0000
  C   C15       1.0  0.47168  0.27879  0.62055  1.0000
  C   C16       1.0  0.97168  0.77879  0.12055  1.0000
  C   C17       1.0  0.47189  0.37639  0.72098  1.0000
  C   C18       1.0  0.97189  0.87639  0.22099  1.0000
  C   C19       1.0  0.38624  0.37810  0.72057  1.0000
  C   C20       1.0  0.88624  0.87810  0.22057  1.0000
  C   C21       1.0  0.27114  0.35646  0.64234  1.0000
  C   C22       1.0  0.77114  0.85645  0.14234  1.0000
  C   C23       1.0  0.58724  0.35650  0.64237  1.0000
  C   C24       1.0  0.08724  0.85650  0.14237  1.0000
  C   C25       1.0  0.92966  0.54889  0.64240  1.0000
  C   C26       1.0  0.42966  0.04889  0.14240  1.0000
  C   C27       1.0  0.92964  0.63120  0.64238  1.0000
  C   C28       1.0  0.42964  0.13120  0.14238  1.0000
  C   C29       1.0  0.92937  0.35622  0.44867  1.0000
  C   C30       1.0  0.42937  0.85622  0.94867  1.0000
  C   C31       1.0  0.92929  0.35611  0.36612  1.0000
  C   C32       1.0  0.42929  0.85611  0.86612  1.0000
  C   C33       1.0  0.73640  0.35651  0.64238  1.0000
  C   C34       1.0  0.23640  0.85651  0.14238  1.0000
  C   C35       1.0  0.65409  0.35651  0.64237  1.0000
  C   C36       1.0  0.15409  0.85651  0.14237  1.0000
  C   C37       1.0  0.92944  0.16331  0.64234  1.0000
  C   C38       1.0  0.42944  0.66331  0.14234  1.0000
  C   C39       1.0  0.92939  0.08100  0.64232  1.0000
  C   C40       1.0  0.42939  0.58100  0.14232  1.0000
  C   C41       1.0  0.92948  0.93029  0.64234  1.0000
  C   C42       1.0  0.42948  0.43029  0.14234  1.0000
  C   C43       1.0  0.98652  0.89891  0.58480  1.0000
  C   C44       1.0  0.48652  0.39891  0.08480  1.0000
  C   C45       1.0  0.98679  0.81329  0.58498  1.0000
  C   C46       1.0  0.48679  0.31330  0.08498  1.0000
  C   C47       1.0  0.92956  0.78191  0.64236  1.0000
  C   C48       1.0  0.42956  0.28191  0.14236  1.0000
  C   C49       1.0  0.95075  0.81314  0.72063  1.0000
  C   C50       1.0  0.45075  0.31314  0.22063  1.0000
  C   C51       1.0  0.95111  0.89878  0.72028  1.0000
  C   C52       1.0  0.45111  0.39878  0.22028  1.0000
  C   C53       1.0  0.85112  0.89862  0.62230  1.0000
  C   C54       1.0  0.35112  0.39862  0.12231  1.0000
  C   C55       1.0  0.85158  0.81297  0.62059  1.0000
  C   C56       1.0  0.35158  0.31297  0.12059  1.0000
  C   C57       1.0  0.92960  0.69805  0.64238  1.0000
  C   C58       1.0  0.42960  0.19805  0.14238  1.0000
  C   C59       1.0  0.92943  0.01415  0.64233  1.0000
  C   C60       1.0  0.42943  0.51415  0.14233  1.0000
  C   C61       1.0  0.92971  0.35668  0.83533  1.0000
  C   C62       1.0  0.42971  0.85668  0.33533  1.0000
  C   C63       1.0  0.92965  0.35658  0.91787  1.0000
  C   C64       1.0  0.42965  0.85658  0.41787  1.0000
  C   C65       1.0  0.97925  0.30720  0.16665  1.0000
  C   C66       1.0  0.47925  0.80720  0.66665  1.0000
  C   C67       1.0  0.99696  0.37494  0.11746  1.0000
  C   C68       1.0  0.49696  0.87494  0.61746  1.0000
  C   C69       1.0  0.92941  0.35627  0.21499  1.0000
  C   C70       1.0  0.42941  0.85627  0.71499  1.0000
  C   C71       1.0  0.91186  0.28869  0.11710  1.0000
  C   C72       1.0  0.41186  0.78868  0.61710  1.0000
  C   C73       1.0  0.92953  0.35642  0.06901  1.0000
  C   C74       1.0  0.42953  0.85642  0.56901  1.0000
  C   C75       1.0  0.94715  0.42405  0.16689  1.0000
  C   C76       1.0  0.44715  0.92405  0.66689  1.0000
  C   C77       1.0  0.86202  0.33775  0.16653  1.0000
  C   C78       1.0  0.36202  0.83775  0.66653  1.0000
  C   C79       1.0  0.87970  0.40554  0.11737  1.0000
  C   C80       1.0  0.37970  0.90554  0.61737  1.0000
  C   C81       1.0  0.92935  0.35619  0.29909  1.0000
  C   C82       1.0  0.42935  0.85619  0.79909  1.0000
  C   C83       1.0  0.92960  0.35651  0.98491  1.0000
  C   C84       1.0  0.42960  0.85651  0.48491  1.0000
  H   H1        1.0  0.49243  0.23446  0.66024  1.0000
  H   H2        1.0  0.99243  0.73446  0.16024  1.0000
  H   H3        1.0  0.36570  0.23449  0.66125  1.0000
  H   H4        1.0  0.86570  0.73449  0.16125  1.0000
  H   H5        1.0  0.49263  0.47197  0.59852  1.0000
  H   H6        1.0  0.99263  0.97197  0.09852  1.0000
  O   O27       1.0  0.82956  0.45528  0.09175  1.0000
  O   O28       1.0  0.32956  0.95528  0.59175  1.0000
  C   C85       1.0  0.84840  0.52649  0.11728  1.0000
  C   C86       1.0  0.34840  0.02649  0.61728  1.0000
  H   H7        1.0  0.90982  0.52832  0.13118  1.0000
  H   H8        1.0  0.40982  0.02832  0.63118  1.0000
  H   H9        1.0  0.83573  0.56878  0.07230  1.0000
  H   H10       1.0  0.33573  0.06879  0.57230  1.0000
  H   H11       1.0  0.81489  0.53996  0.16901  1.0000
  H   H12       1.0  0.31489  0.03996  0.66901  1.0000
  O   O29       1.0  0.01940  0.92284  0.74054  1.0000
  O   O30       1.0  0.51940  0.42284  0.24054  1.0000
  C   C87       1.0  0.02063  0.00073  0.74047  1.0000
  C   C88       1.0  0.52063  0.50073  0.24047  1.0000
  H   H13       1.0  0.96198  0.02263  0.74720  1.0000
  H   H14       1.0  0.46198  0.52263  0.24720  1.0000
  H   H15       1.0  0.05633  0.02129  0.78831  1.0000
  H   H16       1.0  0.55633  0.52129  0.28831  1.0000
  H   H17       1.0  0.04457  0.02123  0.68584  1.0000
  H   H18       1.0  0.54457  0.52123  0.18584  1.0000
  O   O31       1.0  0.49778  0.44305  0.74426  1.0000
  O   O32       1.0  0.99778  0.94305  0.24426  1.0000
  C   C89       1.0  0.53739  0.43394  0.81092  1.0000
  C   C90       1.0  0.03739  0.93394  0.31092  1.0000
  H   H19       1.0  0.55751  0.37444  0.81530  1.0000
  H   H20       1.0  0.05751  0.87444  0.31530  1.0000
  H   H21       1.0  0.58686  0.47294  0.81149  1.0000
  H   H22       1.0  0.08686  0.97294  0.31149  1.0000
  H   H23       1.0  0.49984  0.44709  0.85986  1.0000
  H   H24       1.0  0.99984  0.94709  0.35986  1.0000
  H   H25       1.0  0.97339  0.91940  0.52658  1.0000
  H   H26       1.0  0.47339  0.41940  0.02658  1.0000
  H   H27       1.0  0.96212  0.48128  0.18867  1.0000
  H   H28       1.0  0.46212  0.98128  0.68867  1.0000
  H   H29       1.0  0.04487  0.79288  0.59825  1.0000
  H   H30       1.0  0.54487  0.29288  0.09825  1.0000
  H   H31       1.0  0.36595  0.43552  0.73670  1.0000
  H   H32       1.0  0.86595  0.93552  0.23670  1.0000
  H   H33       1.0  0.02138  0.26568  0.18828  1.0000
  H   H34       1.0  0.52138  0.76568  0.68828  1.0000
  H   H35       1.0  0.05400  0.39067  0.09590  1.0000
  H   H36       1.0  0.55400  0.89067  0.59590  1.0000
  H   H37       1.0  0.80499  0.32200  0.18811  1.0000
  H   H38       1.0  0.30500  0.82200  0.68811  1.0000
  H   H39       1.0  0.89696  0.23147  0.09523  1.0000
  H   H40       1.0  0.39696  0.73147  0.59523  1.0000
  H   H41       1.0  0.91137  0.91955  0.76461  1.0000
  H   H42       1.0  0.41137  0.41955  0.26461  1.0000
  H   H43       1.0  0.36541  0.47160  0.59843  1.0000
  H   H44       1.0  0.86541  0.97160  0.09843  1.0000
  O   O33       1.0  0.90270  0.78880  0.77308  1.0000
  O   O34       1.0  0.40270  0.28880  0.27308  1.0000
  C   C91       1.0  0.84904  0.74309  0.73970  1.0000
  C   C92       1.0  0.34904  0.24309  0.23970  1.0000
  H   H45       1.0  0.87184  0.71961  0.68573  1.0000
  H   H46       1.0  0.37184  0.21961  0.18573  1.0000
  H   H47       1.0  0.83462  0.69586  0.77881  1.0000
  H   H48       1.0  0.33462  0.19585  0.27881  1.0000
  H   H49       1.0  0.79728  0.77684  0.72756  1.0000
  H   H50       1.0  0.29728  0.27684  0.22756  1.0000
  H   H51       1.0  0.49348  0.40092  0.52734  1.0000
  H   H52       1.0  0.99347  0.90092  0.02734  1.0000
  H   H53       1.0  0.83560  0.79255  0.56299  1.0000
  H   H54       1.0  0.33560  0.29255  0.06299  1.0000
  O   O35       1.0  0.36197  0.39811  0.51548  1.0000
  O   O36       1.0  0.86197  0.89811  0.01548  1.0000
  C   C93       1.0  0.38818  0.45219  0.46588  1.0000
  C   C94       1.0  0.88818  0.95219  0.96588  1.0000
  H   H55       1.0  0.43967  0.47945  0.48999  1.0000
  H   H56       1.0  0.93967  0.97945  0.98999  1.0000
  H   H57       1.0  0.40245  0.42508  0.41068  1.0000
  H   H58       1.0  0.90245  0.92508  0.91068  1.0000
  H   H59       1.0  0.34363  0.49577  0.45687  1.0000
  H   H60       1.0  0.84363  0.99577  0.95687  1.0000
  H   H61       1.0  0.00742  0.79177  0.73790  1.0000
  H   H62       1.0  0.50742  0.29177  0.23790  1.0000
  H   H63       1.0  0.49160  0.26192  0.56308  1.0000
  H   H64       1.0  0.99160  0.76192  0.06308  1.0000
  H   H65       1.0  0.36453  0.26127  0.56411  1.0000
  H   H66       1.0  0.86453  0.76127  0.06411  1.0000
  H   H67       1.0  0.36488  0.33932  0.76539  1.0000
  H   H68       1.0  0.86488  0.83932  0.26539  1.0000
  H   H69       1.0  0.49218  0.33456  0.76353  1.0000
  H   H70       1.0  0.99218  0.83456  0.26353  1.0000
  H   H71       1.0  0.97353  0.79217  0.52695  1.0000
  H   H72       1.0  0.47353  0.29217  0.02695  1.0000
  H   H73       1.0  0.04424  0.92051  0.59790  1.0000
  H   H74       1.0  0.54424  0.42051  0.09790  1.0000
  H   H75       1.0  0.80682  0.79160  0.65944  1.0000
  H   H76       1.0  0.30682  0.29160  0.15944  1.0000
  O   O37       1.0  0.82821  0.92430  0.55535  1.0000
  O   O38       1.0  0.32821  0.42430  0.05535  1.0000
  C   C95       1.0  0.88268  0.97136  0.52559  1.0000
  C   C96       1.0  0.38268  0.47136  0.02559  1.0000
  H   H77       1.0  0.93855  0.95767  0.55131  1.0000
  H   H78       1.0  0.43855  0.45767  0.05131  1.0000
  H   H79       1.0  0.88562  0.96320  0.46303  1.0000
  H   H80       1.0  0.38562  0.46320  0.96303  1.0000
  H   H81       1.0  0.86791  0.03125  0.53836  1.0000
  H   H82       1.0  0.36791  0.53125  0.03836  1.0000
  H   H83       1.0  0.80862  0.91892  0.66421  1.0000
  H   H84       1.0  0.30862  0.41892  0.16421  1.0000
