data_image0
_chemical_formula_structural       Zn8O26C40H12C2H6C2H8C2H6
_chemical_formula_sum              "Zn8 O26 C46 H32"
_cell_length_a       16.1203
_cell_length_b       13.0328
_cell_length_c       13.0327
_cell_angle_alpha    90.9029
_cell_angle_beta     80.3459
_cell_angle_gamma    93.9428

_space_group_name_H-M_alt    "P 1"
_space_group_IT_number       1

loop_
  _space_group_symop_operation_xyz
  'x, y, z'

loop_
  _atom_site_type_symbol
  _atom_site_label
  _atom_site_symmetry_multiplicity
  _atom_site_fract_x
  _atom_site_fract_y
  _atom_site_fract_z
  _atom_site_occupancy
  Zn  Zn1       1.0  0.31423  0.52809  0.64688  1.0000
  Zn  Zn2       1.0  0.81423  0.02809  0.14688  1.0000
  Zn  Zn3       1.0  0.43824  0.54131  0.81208  1.0000
  Zn  Zn4       1.0  0.93824  0.04131  0.31208  1.0000
  Zn  Zn5       1.0  0.47298  0.68888  0.61637  1.0000
  Zn  Zn6       1.0  0.97298  0.18888  0.11637  1.0000
  Zn  Zn7       1.0  0.31868  0.72163  0.79669  1.0000
  Zn  Zn8       1.0  0.81868  0.22163  0.29669  1.0000
  O   O1        1.0  0.38603  0.61998  0.71800  1.0000
  O   O2        1.0  0.88603  0.11998  0.21800  1.0000
  O   O3        1.0  0.31429  0.38709  0.68801  1.0000
  O   O4        1.0  0.81429  0.88709  0.18801  1.0000
  O   O5        1.0  0.55933  0.55271  0.77979  1.0000
  O   O6        1.0  0.05933  0.05271  0.27979  1.0000
  O   O7        1.0  0.46460  0.64832  0.47582  1.0000
  O   O8        1.0  0.96460  0.14832  0.97582  1.0000
  O   O9        1.0  0.40540  0.39680  0.80938  1.0000
  O   O10       1.0  0.90540  0.89680  0.30938  1.0000
  O   O11       1.0  0.34797  0.53019  0.49824  1.0000
  O   O12       1.0  0.84797  0.03019  0.99824  1.0000
  O   O13       1.0  0.58485  0.66114  0.63600  1.0000
  O   O14       1.0  0.08485  0.16114  0.13600  1.0000
  O   O15       1.0  0.46891  0.83599  0.62108  1.0000
  O   O16       1.0  0.96891  0.33599  0.12108  1.0000
  O   O17       1.0  0.20161  0.70413  0.78314  1.0000
  O   O18       1.0  0.70161  0.20413  0.28314  1.0000
  O   O19       1.0  0.35554  0.86004  0.75355  1.0000
  O   O20       1.0  0.85554  0.36004  0.25356  1.0000
  O   O21       1.0  0.19834  0.56194  0.67308  1.0000
  O   O22       1.0  0.69834  0.06194  0.17308  1.0000
  O   O23       1.0  0.40971  0.58447  0.95464  1.0000
  O   O24       1.0  0.90971  0.08447  0.45464  1.0000
  O   O25       1.0  0.32186  0.71695  0.94333  1.0000
  O   O26       1.0  0.82186  0.21695  0.44333  1.0000
  C   C1        1.0  0.41647  0.88503  0.68234  1.0000
  C   C2        1.0  0.91647  0.38503  0.18234  1.0000
  C   C3        1.0  0.42948  0.99843  0.66710  1.0000
  C   C4        1.0  0.92948  0.49843  0.16710  1.0000
  C   C5        1.0  0.16893  0.63521  0.72980  1.0000
  C   C6        1.0  0.66893  0.13521  0.22980  1.0000
  C   C7        1.0  0.07641  0.64170  0.73483  1.0000
  C   C8        1.0  0.57641  0.14170  0.23483  1.0000
  C   C9        1.0  0.36247  0.65567  0.98648  1.0000
  C   C10       1.0  0.86247  0.15567  0.48648  1.0000
  C   C11       1.0  0.35236  0.67084  0.10135  1.0000
  C   C12       1.0  0.85236  0.17084  0.60135  1.0000
  C   C13       1.0  0.90703  0.65359  0.74398  1.0000
  C   C14       1.0  0.40703  0.15359  0.24398  1.0000
  C   C15       1.0  0.86419  0.58613  0.69175  1.0000
  C   C16       1.0  0.36419  0.08613  0.19175  1.0000
  C   C17       1.0  0.76994  0.59274  0.69684  1.0000
  C   C18       1.0  0.26994  0.09274  0.19684  1.0000
  C   C19       1.0  0.00129  0.64698  0.73889  1.0000
  C   C20       1.0  0.50129  0.14698  0.23889  1.0000
  C   C21       1.0  0.60229  0.60474  0.70619  1.0000
  C   C22       1.0  0.10229  0.10474  0.20619  1.0000
  C   C23       1.0  0.69481  0.59801  0.70090  1.0000
  C   C24       1.0  0.19481  0.09801  0.20090  1.0000
  C   C25       1.0  0.35547  0.35389  0.75381  1.0000
  C   C26       1.0  0.85547  0.85389  0.25381  1.0000
  C   C27       1.0  0.34245  0.24050  0.76907  1.0000
  C   C28       1.0  0.84245  0.74050  0.26907  1.0000
  C   C29       1.0  0.37925  0.06086  0.72596  1.0000
  C   C30       1.0  0.87925  0.56086  0.22595  1.0000
  C   C31       1.0  0.39268  0.17807  0.71021  1.0000
  C   C32       1.0  0.89268  0.67806  0.21021  1.0000
  C   C33       1.0  0.40966  0.58413  0.44849  1.0000
  C   C34       1.0  0.90966  0.08413  0.94849  1.0000
  C   C35       1.0  0.41973  0.56885  0.33363  1.0000
  C   C36       1.0  0.91973  0.06885  0.83363  1.0000
  C   C37       1.0  0.39127  0.61201  0.15813  1.0000
  C   C38       1.0  0.89127  0.11201  0.65813  1.0000
  C   C39       1.0  0.38081  0.62769  0.27685  1.0000
  C   C40       1.0  0.88081  0.12769  0.77685  1.0000
  H   H1        1.0  0.89829  0.52340  0.64321  1.0000
  H   H2        1.0  0.39829  0.02340  0.14321  1.0000
  H   H3        1.0  0.33975  0.68967  0.31613  1.0000
  H   H4        1.0  0.83975  0.18967  0.81613  1.0000
  H   H5        1.0  0.44563  0.21137  0.64816  1.0000
  H   H6        1.0  0.94563  0.71137  0.14816  1.0000
  H   H7        1.0  0.43232  0.55002  0.11885  1.0000
  H   H8        1.0  0.93232  0.05002  0.61885  1.0000
  H   H9        1.0  0.46078  0.50686  0.29436  1.0000
  H   H10       1.0  0.96078  0.00686  0.79436  1.0000
  H   H11       1.0  0.87293  0.71631  0.79252  1.0000
  H   H12       1.0  0.37293  0.21631  0.29252  1.0000
  C   C41       1.0  0.29690  0.75458  0.15440  1.0000
  C   C42       1.0  0.79690  0.25458  0.65440  1.0000
  H   H13       1.0  0.29715  0.75414  0.22724  1.0000
  H   H14       1.0  0.79715  0.25414  0.72724  1.0000
  H   H15       1.0  0.24080  0.74131  0.14176  1.0000
  H   H16       1.0  0.74080  0.24131  0.64176  1.0000
  H   H17       1.0  0.31854  0.81995  0.12695  1.0000
  H   H18       1.0  0.81854  0.31995  0.62695  1.0000
  C   C43       1.0  0.27091  0.19553  0.85289  1.0000
  C   C44       1.0  0.77091  0.69553  0.35289  1.0000
  H   H19       1.0  0.24114  0.24990  0.88777  1.0000
  H   H20       1.0  0.74114  0.74990  0.38777  1.0000
  H   H21       1.0  0.29413  0.15769  0.90167  1.0000
  H   H22       1.0  0.79413  0.65769  0.40167  1.0000
  H   H23       1.0  0.23332  0.15125  0.82094  1.0000
  H   H24       1.0  0.73332  0.65125  0.32094  1.0000
  H   H25       1.0  0.32629  0.02755  0.78799  1.0000
  H   H26       1.0  0.82630  0.52755  0.28799  1.0000
  C   C45       1.0  0.50100  0.04341  0.58328  1.0000
  C   C46       1.0  0.00100  0.54341  0.08328  1.0000
  H   H27       1.0  0.50065  0.11628  0.58370  1.0000
  H   H28       1.0  0.00065  0.61628  0.08370  1.0000
  H   H29       1.0  0.49284  0.01764  0.51687  1.0000
  H   H30       1.0  0.99284  0.51764  0.01687  1.0000
  H   H31       1.0  0.55366  0.02409  0.59758  1.0000
  H   H32       1.0  0.05366  0.52409  0.09758  1.0000
