data_image0
_chemical_formula_structural       Zn4O13C32H4CH3CH5CH6CH4CH3CH3CH3CH5
_chemical_formula_sum              "Zn4 O13 C40 H36"
_cell_length_a       21.3954
_cell_length_b       13.0327
_cell_length_c       13.0323
_cell_angle_alpha    103.29
_cell_angle_beta     97.1604
_cell_angle_gamma    97.2194

_space_group_name_H-M_alt    "P 1"
_space_group_IT_number       1

loop_
  _space_group_symop_operation_xyz
  'x, y, z'

loop_
  _atom_site_type_symbol
  _atom_site_label
  _atom_site_symmetry_multiplicity
  _atom_site_fract_x
  _atom_site_fract_y
  _atom_site_fract_z
  _atom_site_occupancy
  Zn  Zn1       1.0  0.87006  0.50130  0.34583  1.0000
  Zn  Zn2       1.0  0.86999  0.34622  0.50088  1.0000
  Zn  Zn3       1.0  0.78053  0.52377  0.52341  1.0000
  Zn  Zn4       1.0  0.75003  0.32369  0.32334  1.0000
  O   O1        1.0  0.81765  0.42374  0.42336  1.0000
  O   O2        1.0  0.95773  0.48075  0.36638  1.0000
  O   O3        1.0  0.87086  0.38860  0.65249  1.0000
  O   O4        1.0  0.80520  0.66942  0.51869  1.0000
  O   O5        1.0  0.95768  0.36681  0.48030  1.0000
  O   O6        1.0  0.87098  0.65292  0.38823  1.0000
  O   O7        1.0  0.80513  0.51904  0.66904  1.0000
  O   O8        1.0  0.68880  0.49720  0.49688  1.0000
  O   O9        1.0  0.75321  0.32842  0.17770  1.0000
  O   O10       1.0  0.66639  0.35020  0.34989  1.0000
  O   O11       1.0  0.84140  0.45891  0.19423  1.0000
  O   O12       1.0  0.84129  0.19459  0.45849  1.0000
  O   O13       1.0  0.75315  0.17804  0.32805  1.0000
  C   C1        1.0  0.65486  0.42370  0.42339  1.0000
  C   C2        1.0  0.58522  0.42365  0.42337  1.0000
  C   C3        1.0  0.55253  0.48285  0.36393  1.0000
  C   C4        1.0  0.48710  0.48288  0.36393  1.0000
  C   C5        1.0  0.45435  0.42368  0.42335  1.0000
  C   C6        1.0  0.48704  0.36447  0.48280  1.0000
  C   C7        1.0  0.55247  0.36446  0.48281  1.0000
  C   C8        1.0  0.34316  0.32911  0.41974  1.0000
  C   C9        1.0  0.27773  0.32912  0.41973  1.0000
  C   C10       1.0  0.25253  0.42374  0.42334  1.0000
  C   C11       1.0  0.29278  0.51834  0.42694  1.0000
  C   C12       1.0  0.35821  0.51832  0.42695  1.0000
  C   C13       1.0  0.38340  0.42369  0.42335  1.0000
  C   C14       1.0  0.14890  0.48297  0.36390  1.0000
  C   C15       1.0  0.08346  0.48301  0.36391  1.0000
  C   C16       1.0  0.08341  0.36459  0.48277  1.0000
  C   C17       1.0  0.14884  0.36457  0.48277  1.0000
  C   C18       1.0  0.18158  0.42376  0.42333  1.0000
  C   C19       1.0  0.79392  0.14777  0.38836  1.0000
  C   C20       1.0  0.78382  0.02971  0.37335  1.0000
  C   C21       1.0  0.82295  0.98529  0.43115  1.0000
  C   C22       1.0  0.81251  0.86326  0.41564  1.0000
  C   C23       1.0  0.98108  0.42379  0.42334  1.0000
  C   C24       1.0  0.05072  0.42381  0.42333  1.0000
  C   C25       1.0  0.79392  0.38865  0.14635  1.0000
  C   C26       1.0  0.78380  0.37369  0.02830  1.0000
  C   C27       1.0  0.84150  0.70079  0.45848  1.0000
  C   C28       1.0  0.85166  0.81885  0.47345  1.0000
  C   C29       1.0  0.82292  0.43159  0.98385  1.0000
  C   C30       1.0  0.81247  0.41613  0.86184  1.0000
  C   C31       1.0  0.84134  0.45878  0.69931  1.0000
  C   C32       1.0  0.85160  0.47403  0.81739  1.0000
  H   H1        1.0  0.17556  0.53118  0.31551  1.0000
  H   H2        1.0  0.74256  0.31269  0.97603  1.0000
  H   H3        1.0  0.57919  0.53105  0.31553  1.0000
  H   H4        1.0  0.77123  0.35512  0.80958  1.0000
  C   C33       1.0  0.72811  0.95906  0.29098  1.0000
  H   H5        1.0  0.70491  0.00275  0.25672  1.0000
  H   H6        1.0  0.70064  0.92086  0.32617  1.0000
  H   H7        1.0  0.74442  0.90998  0.23921  1.0000
  C   C34       1.0  0.90731  0.55646  0.88799  1.0000
  H   H8        1.0  0.90703  0.55603  0.96073  1.0000
  H   H9        1.0  0.90274  0.62554  0.87891  1.0000
  H   H10       1.0  0.94653  0.53864  0.86789  1.0000
  H   H11       1.0  0.86416  0.49260  0.03612  1.0000
  H   H12       1.0  0.46049  0.53109  0.31554  1.0000
  C   C35       1.0  0.90737  0.88949  0.55582  1.0000
  H   H13       1.0  0.93057  0.84580  0.59006  1.0000
  H   H14       1.0  0.89106  0.93857  0.60758  1.0000
  H   H15       1.0  0.93484  0.92767  0.52061  1.0000
  H   H16       1.0  0.77128  0.81096  0.35466  1.0000
  H   H17       1.0  0.39098  0.59535  0.42988  1.0000
  H   H18       1.0  0.05686  0.53122  0.31551  1.0000
  C   C36       1.0  0.26507  0.62242  0.43090  1.0000
  H   H19       1.0  0.22034  0.60889  0.43039  1.0000
  H   H20       1.0  0.27318  0.64808  0.37049  1.0000
  H   H21       1.0  0.28460  0.67450  0.49429  1.0000
  H   H22       1.0  0.46037  0.31628  0.53118  1.0000
  C   C37       1.0  0.04739  0.29948  0.54814  1.0000
  H   H23       1.0  0.07623  0.26422  0.58354  1.0000
  H   H24       1.0  0.01440  0.24801  0.50171  1.0000
  H   H25       1.0  0.02934  0.34605  0.59951  1.0000
  C   C38       1.0  0.18479  0.29944  0.54813  1.0000
  H   H26       1.0  0.22845  0.30791  0.53963  1.0000
  H   H27       1.0  0.16659  0.22609  0.52365  1.0000
  H   H28       1.0  0.18153  0.32414  0.62146  1.0000
  C   C39       1.0  0.23346  0.22507  0.41576  1.0000
  H   H29       1.0  0.19088  0.23862  0.41626  1.0000
  H   H30       1.0  0.24679  0.19940  0.47618  1.0000
  H   H31       1.0  0.23538  0.17298  0.35238  1.0000
  C   C40       1.0  0.37086  0.22502  0.41577  1.0000
  H   H32       1.0  0.33752  0.16868  0.41360  1.0000
  H   H33       1.0  0.40179  0.23428  0.47751  1.0000
  H   H34       1.0  0.39037  0.20788  0.35371  1.0000
  H   H35       1.0  0.57908  0.31624  0.53121  1.0000
  H   H36       1.0  0.86419  0.03760  0.49211  1.0000
