data_image0
_chemical_formula_structural       Zn8O26C48H4Br2H2Br2H2Br2H2Br2H2Br2H2
_chemical_formula_sum              "Zn8 O26 C48 H14 Br10"
_cell_length_a       12.7594
_cell_length_b       12.7594
_cell_length_c       12.7594
_cell_angle_alpha    89.9702
_cell_angle_beta     89.9803
_cell_angle_gamma    90.0151

_space_group_name_H-M_alt    "P 1"
_space_group_IT_number       1

loop_
  _space_group_symop_operation_xyz
  'x, y, z'

loop_
  _atom_site_type_symbol
  _atom_site_label
  _atom_site_symmetry_multiplicity
  _atom_site_fract_x
  _atom_site_fract_y
  _atom_site_fract_z
  _atom_site_occupancy
  Zn  Zn1       1.0  0.60627  0.58180  0.40601  1.0000
  Zn  Zn2       1.0  0.10627  0.08180  0.90601  1.0000
  Zn  Zn3       1.0  0.60616  0.40608  0.58169  1.0000
  Zn  Zn4       1.0  0.10616  0.90608  0.08169  1.0000
  Zn  Zn5       1.0  0.43057  0.58174  0.58167  1.0000
  Zn  Zn6       1.0  0.93057  0.08174  0.08167  1.0000
  Zn  Zn7       1.0  0.43056  0.40616  0.40605  1.0000
  Zn  Zn8       1.0  0.93056  0.90616  0.90605  1.0000
  O   O1        1.0  0.51839  0.49395  0.49385  1.0000
  O   O2        1.0  0.01839  0.99395  0.99385  1.0000
  O   O3        1.0  0.75327  0.55848  0.42931  1.0000
  O   O4        1.0  0.25327  0.05848  0.92931  1.0000
  O   O5        1.0  0.58282  0.42933  0.72871  1.0000
  O   O6        1.0  0.08282  0.92933  0.22871  1.0000
  O   O7        1.0  0.45392  0.72877  0.55835  1.0000
  O   O8        1.0  0.95392  0.22877  0.05835  1.0000
  O   O9        1.0  0.75319  0.42938  0.55838  1.0000
  O   O10       1.0  0.25319  0.92938  0.05838  1.0000
  O   O11       1.0  0.58301  0.72881  0.42929  1.0000
  O   O12       1.0  0.08301  0.22881  0.92929  1.0000
  O   O13       1.0  0.45382  0.55839  0.72869  1.0000
  O   O14       1.0  0.95382  0.05839  0.22870  1.0000
  O   O15       1.0  0.28354  0.55846  0.55838  1.0000
  O   O16       1.0  0.78354  0.05846  0.05838  1.0000
  O   O17       1.0  0.45391  0.42951  0.25902  1.0000
  O   O18       1.0  0.95391  0.92951  0.75902  1.0000
  O   O19       1.0  0.28354  0.42946  0.42935  1.0000
  O   O20       1.0  0.78354  0.92946  0.92935  1.0000
  O   O21       1.0  0.58300  0.55855  0.25899  1.0000
  O   O22       1.0  0.08300  0.05855  0.75899  1.0000
  O   O23       1.0  0.58282  0.25907  0.55841  1.0000
  O   O24       1.0  0.08282  0.75907  0.05841  1.0000
  O   O25       1.0  0.45380  0.25913  0.42937  1.0000
  O   O26       1.0  0.95380  0.75913  0.92937  1.0000
  C   C1        1.0  0.24542  0.49396  0.49387  1.0000
  C   C2        1.0  0.74542  0.99396  0.99387  1.0000
  C   C3        1.0  0.12864  0.49395  0.49385  1.0000
  C   C4        1.0  0.62864  0.99395  0.99385  1.0000
  C   C5        1.0  0.07382  0.56105  0.42654  1.0000
  C   C6        1.0  0.57382  0.06105  0.92654  1.0000
  C   C7        1.0  0.96410  0.56103  0.42653  1.0000
  C   C8        1.0  0.46410  0.06103  0.92653  1.0000
  C   C9        1.0  0.96402  0.42682  0.56115  1.0000
  C   C10       1.0  0.46402  0.92682  0.06115  1.0000
  C   C11       1.0  0.07375  0.42683  0.56116  1.0000
  C   C12       1.0  0.57375  0.92683  0.06116  1.0000
  C   C13       1.0  0.51833  0.22098  0.49387  1.0000
  C   C14       1.0  0.01832  0.72098  0.99387  1.0000
  C   C15       1.0  0.51839  0.10420  0.49385  1.0000
  C   C16       1.0  0.01839  0.60420  0.99385  1.0000
  C   C17       1.0  0.58558  0.04945  0.42659  1.0000
  C   C18       1.0  0.08558  0.54945  0.92659  1.0000
  C   C19       1.0  0.58564  0.93973  0.42656  1.0000
  C   C20       1.0  0.08564  0.43972  0.92656  1.0000
  C   C21       1.0  0.45132  0.93951  0.56106  1.0000
  C   C22       1.0  0.95132  0.43951  0.06105  1.0000
  C   C23       1.0  0.45126  0.04924  0.56108  1.0000
  C   C24       1.0  0.95126  0.54924  0.06108  1.0000
  C   C25       1.0  0.79242  0.49393  0.49384  1.0000
  C   C26       1.0  0.29242  0.99393  0.99384  1.0000
  C   C27       1.0  0.90920  0.49392  0.49383  1.0000
  C   C28       1.0  0.40920  0.99392  0.99383  1.0000
  C   C29       1.0  0.51847  0.49405  0.21982  1.0000
  C   C30       1.0  0.01847  0.99405  0.71982  1.0000
  C   C31       1.0  0.51850  0.49409  0.10304  1.0000
  C   C32       1.0  0.01850  0.99409  0.60304  1.0000
  C   C33       1.0  0.51848  0.76798  0.49381  1.0000
  C   C34       1.0  0.01848  0.26798  0.99381  1.0000
  C   C35       1.0  0.51852  0.88475  0.49379  1.0000
  C   C36       1.0  0.01852  0.38476  0.99379  1.0000
  C   C37       1.0  0.58572  0.56129  0.04817  1.0000
  C   C38       1.0  0.08572  0.06129  0.54817  1.0000
  C   C39       1.0  0.58574  0.56134  0.93844  1.0000
  C   C40       1.0  0.08574  0.06134  0.43844  1.0000
  C   C41       1.0  0.45131  0.42697  0.93848  1.0000
  C   C42       1.0  0.95131  0.92697  0.43848  1.0000
  C   C43       1.0  0.45129  0.42693  0.04821  1.0000
  C   C44       1.0  0.95129  0.92693  0.54821  1.0000
  C   C45       1.0  0.51837  0.49392  0.76682  1.0000
  C   C46       1.0  0.01837  0.99392  0.26682  1.0000
  C   C47       1.0  0.51854  0.49417  0.88360  1.0000
  C   C48       1.0  0.01854  0.99417  0.38360  1.0000
  H   H1        1.0  0.11838  0.37219  0.61598  1.0000
  H   H2        1.0  0.61838  0.87219  0.11598  1.0000
  H   H3        1.0  0.64024  0.09420  0.37184  1.0000
  H   H4        1.0  0.14024  0.59420  0.87184  1.0000
  Br  Br1       1.0  0.67682  0.86542  0.33527  1.0000
  Br  Br2       1.0  0.17682  0.36542  0.83527  1.0000
  H   H5        1.0  0.39654  0.37220  0.09289  1.0000
  H   H6        1.0  0.89654  0.87221  0.59289  1.0000
  Br  Br3       1.0  0.36010  0.33582  0.86405  1.0000
  Br  Br4       1.0  0.86010  0.83582  0.36405  1.0000
  H   H7        1.0  0.39667  0.89475  0.61579  1.0000
  H   H8        1.0  0.89667  0.39475  0.11579  1.0000
  Br  Br5       1.0  0.67694  0.65244  0.12259  1.0000
  Br  Br6       1.0  0.17694  0.15244  0.62259  1.0000
  H   H9        1.0  0.91947  0.61568  0.37172  1.0000
  H   H10       1.0  0.41947  0.11568  0.87172  1.0000
  Br  Br7       1.0  0.14832  0.65213  0.33519  1.0000
  Br  Br8       1.0  0.64832  0.15213  0.83519  1.0000
  H   H11       1.0  0.39654  0.09382  0.61585  1.0000
  H   H12       1.0  0.89654  0.59382  0.11585  1.0000
  Br  Br9       1.0  0.88952  0.33574  0.65249  1.0000
  Br  Br10      1.0  0.38952  0.83574  0.15249  1.0000
  H   H13       1.0  0.64048  0.61606  0.89376  1.0000
  H   H14       1.0  0.14048  0.11606  0.39377  1.0000
