data_image0
_chemical_formula_structural       Zn4O13C28HCNH2CNCNCNHCNH2CNH2
_chemical_formula_sum              "Zn4 O13 C34 H8 N6"
_cell_length_a       10.686
_cell_length_b       17.64
_cell_length_c       10.6866
_cell_angle_alpha    106.369
_cell_angle_beta     81.5917
_cell_angle_gamma    97.736

_space_group_name_H-M_alt    "P 1"
_space_group_IT_number       1

loop_
  _space_group_symop_operation_xyz
  'x, y, z'

loop_
  _atom_site_type_symbol
  _atom_site_label
  _atom_site_symmetry_multiplicity
  _atom_site_fract_x
  _atom_site_fract_y
  _atom_site_fract_z
  _atom_site_occupancy
  Zn  Zn1       1.0  0.04888  0.17716  0.18635  1.0000
  Zn  Zn2       1.0  0.07537  0.32035  0.44149  1.0000
  Zn  Zn3       1.0  0.82690  0.19916  0.42147  1.0000
  Zn  Zn4       1.0  0.87947  0.32028  0.24556  1.0000
  O   O1        1.0  0.95765  0.25424  0.32372  1.0000
  O   O2        1.0  0.22728  0.18698  0.20379  1.0000
  O   O3        1.0  0.03149  0.31352  0.61923  1.0000
  O   O4        1.0  0.82326  0.08563  0.35712  1.0000
  O   O5        1.0  0.24674  0.29218  0.39124  1.0000
  O   O6        1.0  0.98635  0.06947  0.18438  1.0000
  O   O7        1.0  0.84894  0.22448  0.60452  1.0000
  O   O8        1.0  0.65899  0.22440  0.41454  1.0000
  O   O9        1.0  0.91286  0.29205  0.05730  1.0000
  O   O10       1.0  0.69761  0.31339  0.28529  1.0000
  O   O11       1.0  0.03732  0.18691  0.01380  1.0000
  O   O12       1.0  0.08247  0.43096  0.44866  1.0000
  O   O13       1.0  0.93854  0.43090  0.30471  1.0000
  C   C1        1.0  0.63295  0.27127  0.35417  1.0000
  C   C2        1.0  0.49405  0.27858  0.36717  1.0000
  C   C3        1.0  0.01912  0.45961  0.38525  1.0000
  C   C4        1.0  0.04553  0.54745  0.41151  1.0000
  C   C5        1.0  0.75735  0.83641  0.12368  1.0000
  C   C6        1.0  0.78217  0.91896  0.14841  1.0000
  C   C7        1.0  0.93215  0.91894  0.29813  1.0000
  C   C8        1.0  0.90735  0.83639  0.27341  1.0000
  C   C9        1.0  0.81995  0.79513  0.18619  1.0000
  C   C10       1.0  0.96994  0.79511  0.33592  1.0000
  C   C11       1.0  0.94514  0.71256  0.31121  1.0000
  C   C12       1.0  0.85774  0.67130  0.22399  1.0000
  C   C13       1.0  0.79514  0.71259  0.16148  1.0000
  C   C14       1.0  0.05734  0.83637  0.42315  1.0000
  C   C15       1.0  0.11993  0.79509  0.48565  1.0000
  C   C16       1.0  0.09514  0.71254  0.46093  1.0000
  C   C17       1.0  0.00774  0.67128  0.37372  1.0000
  C   C18       1.0  0.15773  0.67125  0.52345  1.0000
  C   C19       1.0  0.13293  0.58871  0.49874  1.0000
  C   C20       1.0  0.98293  0.58873  0.34901  1.0000
  C   C21       1.0  0.28362  0.23714  0.29315  1.0000
  C   C22       1.0  0.42253  0.22985  0.28012  1.0000
  C   C23       1.0  0.97800  0.23702  0.98747  1.0000
  C   C24       1.0  0.98667  0.22968  0.84418  1.0000
  C   C25       1.0  0.89595  0.04807  0.26192  1.0000
  C   C26       1.0  0.86955  0.96022  0.23562  1.0000
  C   C27       1.0  0.93744  0.27133  0.65863  1.0000
  C   C28       1.0  0.92895  0.27843  0.80183  1.0000
  H   H1        1.0  0.44902  0.32589  0.45165  1.0000
  C   C29       1.0  0.85322  0.34241  0.90093  1.0000
  N   N1        1.0  0.79619  0.39059  0.97558  1.0000
  H   H2        1.0  0.91177  0.55514  0.27797  1.0000
  H   H3        1.0  0.04273  0.18233  0.77082  1.0000
  C   C30       1.0  0.83046  0.58050  0.19681  1.0000
  N   N2        1.0  0.80991  0.51211  0.17633  1.0000
  C   C31       1.0  0.69898  0.66720  0.06555  1.0000
  N   N3        1.0  0.62654  0.63301  0.99331  1.0000
  C   C32       1.0  0.48336  0.16594  0.16599  1.0000
  N   N4        1.0  0.52918  0.11780  0.08003  1.0000
  H   H4        1.0  0.73121  0.95256  0.09749  1.0000
  C   C33       1.0  0.66119  0.79102  0.02775  1.0000
  N   N5        1.0  0.58875  0.75684  0.95551  1.0000
  H   H5        1.0  0.00331  0.95254  0.36915  1.0000
  H   H6        1.0  0.19109  0.82869  0.55667  1.0000
  C   C34       1.0  0.08462  0.92717  0.45032  1.0000
  N   N6        1.0  0.10518  0.99556  0.47078  1.0000
  H   H7        1.0  0.22889  0.70486  0.59447  1.0000
  H   H8        1.0  0.18390  0.55510  0.54964  1.0000
