data_image0
_chemical_formula_structural       Zn4O13C32HC6H6C6H5C6H6C6H12
_chemical_formula_sum              "Zn4 O13 C56 H30"
_cell_length_a       14.9086
_cell_length_b       16.1205
_cell_length_c       14.9083
_cell_angle_alpha    95.9861
_cell_angle_beta     90.1751
_cell_angle_gamma    89.7873

_space_group_name_H-M_alt    "P 1"
_space_group_IT_number       1

loop_
  _space_group_symop_operation_xyz
  'x, y, z'

loop_
  _atom_site_type_symbol
  _atom_site_label
  _atom_site_symmetry_multiplicity
  _atom_site_fract_x
  _atom_site_fract_y
  _atom_site_fract_z
  _atom_site_occupancy
  Zn  Zn1       1.0  0.32010  0.56508  0.39004  1.0000
  Zn  Zn2       1.0  0.32104  0.43326  0.53362  1.0000
  Zn  Zn3       1.0  0.17934  0.58108  0.54987  1.0000
  Zn  Zn4       1.0  0.16213  0.43425  0.39202  1.0000
  O   O1        1.0  0.24565  0.50342  0.46639  1.0000
  O   O2        1.0  0.44564  0.54048  0.40146  1.0000
  O   O3        1.0  0.30984  0.45915  0.66192  1.0000
  O   O4        1.0  0.20482  0.69558  0.53464  1.0000
  O   O5        1.0  0.44633  0.44363  0.50694  1.0000
  O   O6        1.0  0.30824  0.68382  0.41721  1.0000
  O   O7        1.0  0.20574  0.56776  0.67386  1.0000
  O   O8        1.0  0.05164  0.56872  0.53655  1.0000
  O   O9        1.0  0.17548  0.44532  0.26561  1.0000
  O   O10       1.0  0.03899  0.46084  0.42058  1.0000
  O   O11       1.0  0.29154  0.54144  0.26415  1.0000
  O   O12       1.0  0.29315  0.31677  0.50886  1.0000
  O   O13       1.0  0.17640  0.31749  0.40483  1.0000
  C   C1        1.0  0.01280  0.51662  0.48054  1.0000
  C   C2        1.0  0.91318  0.52225  0.48658  1.0000
  C   C3        1.0  0.23303  0.28689  0.45527  1.0000
  C   C4        1.0  0.22771  0.19425  0.45049  1.0000
  C   C5        1.0  0.71287  0.42033  0.37731  1.0000
  C   C6        1.0  0.61927  0.42562  0.38297  1.0000
  C   C7        1.0  0.63238  0.53811  0.50358  1.0000
  C   C8        1.0  0.72598  0.53283  0.49791  1.0000
  C   C9        1.0  0.76622  0.47394  0.43477  1.0000
  C   C10       1.0  0.85982  0.46865  0.42911  1.0000
  C   C11       1.0  0.87293  0.58114  0.54971  1.0000
  C   C12       1.0  0.77934  0.58643  0.55538  1.0000
  C   C13       1.0  0.21800  0.02464  0.44172  1.0000
  C   C14       1.0  0.27346  0.98302  0.49102  1.0000
  C   C15       1.0  0.26805  0.88864  0.48615  1.0000
  C   C16       1.0  0.22341  0.11903  0.44660  1.0000
  C   C17       1.0  0.47941  0.49016  0.45217  1.0000
  C   C18       1.0  0.57902  0.48451  0.44611  1.0000
  C   C19       1.0  0.23149  0.49170  0.23126  1.0000
  C   C20       1.0  0.22545  0.48671  0.13106  1.0000
  C   C21       1.0  0.25834  0.72079  0.47752  1.0000
  C   C22       1.0  0.26375  0.81342  0.48226  1.0000
  C   C23       1.0  0.33496  0.57744  0.94127  1.0000
  C   C24       1.0  0.32929  0.57275  0.84712  1.0000
  C   C25       1.0  0.20844  0.47265  0.84862  1.0000
  C   C26       1.0  0.21411  0.47734  0.94277  1.0000
  C   C27       1.0  0.27737  0.52973  0.98909  1.0000
  C   C28       1.0  0.28305  0.53442  0.08323  1.0000
  C   C29       1.0  0.16219  0.43432  0.08473  1.0000
  C   C30       1.0  0.15652  0.42963  0.99059  1.0000
  C   C31       1.0  0.25981  0.51514  0.70060  1.0000
  C   C32       1.0  0.26604  0.52036  0.80080  1.0000
  H   H1        1.0  0.89259  0.42069  0.37770  1.0000
  C   C33       1.0  0.09882  0.38185  0.13733  1.0000
  C   C34       1.0  0.03445  0.42518  0.20817  1.0000
  C   C35       1.0  0.97108  0.37271  0.26076  1.0000
  C   C36       1.0  0.97207  0.27691  0.24251  1.0000
  C   C37       1.0  0.03643  0.23358  0.17167  1.0000
  C   C38       1.0  0.09981  0.28605  0.11908  1.0000
  H   H2        1.0  0.03372  0.49610  0.22168  1.0000
  H   H3        1.0  0.92343  0.40479  0.31320  1.0000
  H   H4        1.0  0.92515  0.23807  0.28144  1.0000
  H   H5        1.0  0.03717  0.16266  0.15816  1.0000
  H   H6        1.0  0.14746  0.25397  0.06664  1.0000
  H   H7        1.0  0.57584  0.38197  0.33618  1.0000
  C   C39       1.0  0.75714  0.35555  0.30787  1.0000
  C   C40       1.0  0.73922  0.26192  0.31131  1.0000
  C   C41       1.0  0.78349  0.19714  0.24187  1.0000
  C   C42       1.0  0.84569  0.22599  0.16898  1.0000
  C   C43       1.0  0.86361  0.31962  0.16554  1.0000
  C   C44       1.0  0.81934  0.38440  0.23498  1.0000
  H   H8        1.0  0.69318  0.24057  0.36526  1.0000
  H   H9        1.0  0.77022  0.12783  0.24442  1.0000
  H   H10       1.0  0.87846  0.17803  0.11758  1.0000
  H   H11       1.0  0.90965  0.34098  0.11158  1.0000
  H   H12       1.0  0.83261  0.45372  0.23243  1.0000
  C   C45       1.0  0.08695  0.37199  0.93963  1.0000
  C   C46       1.0  0.08954  0.27748  0.94727  1.0000
  C   C47       1.0  0.01998  0.21983  0.89631  1.0000
  C   C48       1.0  0.94782  0.25669  0.83770  1.0000
  C   C49       1.0  0.94523  0.35121  0.83006  1.0000
  C   C50       1.0  0.01479  0.40886  0.88102  1.0000
  H   H13       1.0  0.14295  0.25019  0.99066  1.0000
  H   H14       1.0  0.02189  0.14987  0.90197  1.0000
  H   H15       1.0  0.89633  0.21402  0.79998  1.0000
  H   H16       1.0  0.89182  0.37850  0.78667  1.0000
  H   H17       1.0  0.01288  0.47882  0.87536  1.0000
  H   H18       1.0  0.59960  0.58607  0.55498  1.0000
  C   C51       1.0  0.34306  0.03063  0.55299  1.0000
  C   C52       1.0  0.34133  0.02422  0.65531  1.0000
  C   C53       1.0  0.41093  0.07183  0.71729  1.0000
  C   C54       1.0  0.48227  0.12584  0.67694  1.0000
  C   C55       1.0  0.48401  0.13226  0.57461  1.0000
  C   C56       1.0  0.41441  0.08465  0.51264  1.0000
  H   H19       1.0  0.28851  0.98423  0.68519  1.0000
  H   H20       1.0  0.40964  0.06708  0.79304  1.0000
  H   H21       1.0  0.53380  0.16109  0.72282  1.0000
  H   H22       1.0  0.53682  0.17225  0.54474  1.0000
  H   H23       1.0  0.41570  0.08940  0.43689  1.0000
  H   H24       1.0  0.74656  0.63438  0.60678  1.0000
  H   H25       1.0  0.16648  0.98940  0.39586  1.0000
  H   H26       1.0  0.33456  0.57708  0.12094  1.0000
  H   H27       1.0  0.38648  0.62010  0.97898  1.0000
  H   H28       1.0  0.37619  0.61160  0.80819  1.0000
  H   H29       1.0  0.15694  0.43000  0.81090  1.0000
  H   H30       1.0  0.91638  0.62479  0.59651  1.0000
