data_image0
_chemical_formula_structural       Zn4O13C38H2OCH2C2H6OCH2C2H5OCH2C2H5OCH2C2H6OCH2C2H5OCH2C2H6OCH2C2H5OCH2C2H5OCH2C2H7
_chemical_formula_sum              "Zn4 O22 C65 H70"
_cell_length_a       19.8054
_cell_length_b       13.8974
_cell_length_c       19.8054
_cell_angle_alpha    90.0237
_cell_angle_beta     90.0196
_cell_angle_gamma    90.0195

_space_group_name_H-M_alt    "P 1"
_space_group_IT_number       1

loop_
  _space_group_symop_operation_xyz
  'x, y, z'

loop_
  _atom_site_type_symbol
  _atom_site_label
  _atom_site_symmetry_multiplicity
  _atom_site_fract_x
  _atom_site_fract_y
  _atom_site_fract_z
  _atom_site_occupancy
  Zn  Zn1       1.0  0.03477  0.61596  0.38274  1.0000
  Zn  Zn2       1.0  0.03470  0.45466  0.26956  1.0000
  Zn  Zn3       1.0  0.92158  0.61594  0.26956  1.0000
  Zn  Zn4       1.0  0.92156  0.45471  0.38270  1.0000
  O   O1        1.0  0.97815  0.53532  0.32614  1.0000
  O   O2        1.0  0.12947  0.59455  0.36774  1.0000
  O   O3        1.0  0.01967  0.47602  0.17484  1.0000
  O   O4        1.0  0.93664  0.75092  0.28459  1.0000
  O   O5        1.0  0.12942  0.47604  0.28458  1.0000
  O   O6        1.0  0.01979  0.75094  0.36774  1.0000
  O   O7        1.0  0.93657  0.59451  0.17485  1.0000
  O   O8        1.0  0.82686  0.59456  0.28456  1.0000
  O   O9        1.0  0.93660  0.47613  0.47742  1.0000
  O   O10       1.0  0.82685  0.47611  0.36768  1.0000
  O   O11       1.0  0.01977  0.59461  0.47745  1.0000
  O   O12       1.0  0.01965  0.31968  0.28455  1.0000
  O   O13       1.0  0.93653  0.31972  0.36768  1.0000
  C   C1        1.0  0.80230  0.53533  0.32612  1.0000
  C   C2        1.0  0.72706  0.53532  0.32612  1.0000
  C   C3        1.0  0.69173  0.47355  0.36934  1.0000
  C   C4        1.0  0.62104  0.47355  0.36935  1.0000
  C   C5        1.0  0.58569  0.53531  0.32614  1.0000
  C   C6        1.0  0.62103  0.59709  0.28292  1.0000
  C   C7        1.0  0.69171  0.59710  0.28292  1.0000
  C   C8        1.0  0.33596  0.59707  0.28295  1.0000
  C   C9        1.0  0.26526  0.59706  0.28296  1.0000
  C   C10       1.0  0.26528  0.47352  0.36938  1.0000
  C   C11       1.0  0.33597  0.47352  0.36937  1.0000
  C   C12       1.0  0.37130  0.53531  0.32616  1.0000
  C   C13       1.0  0.44795  0.53531  0.32615  1.0000
  C   C14       1.0  0.50904  0.53530  0.32615  1.0000
  C   C15       1.0  0.97810  0.28470  0.32612  1.0000
  C   C16       1.0  0.97813  0.17749  0.32614  1.0000
  C   C17       1.0  0.97817  0.09042  0.32616  1.0000
  C   C18       1.0  0.97821  0.98118  0.32617  1.0000
  C   C19       1.0  0.15469  0.53530  0.32616  1.0000
  C   C20       1.0  0.22993  0.53529  0.32617  1.0000
  C   C21       1.0  0.97819  0.53538  0.50268  1.0000
  C   C22       1.0  0.97821  0.53540  0.57791  1.0000
  C   C23       1.0  0.97822  0.78691  0.32617  1.0000
  C   C24       1.0  0.97826  0.89412  0.32618  1.0000
  C   C25       1.0  0.97815  0.53533  0.15028  1.0000
  C   C26       1.0  0.97827  0.53557  0.07505  1.0000
  C   C27       1.0  0.02151  0.59709  0.61327  1.0000
  C   C28       1.0  0.02152  0.59712  0.68396  1.0000
  C   C29       1.0  0.97822  0.53545  0.71929  1.0000
  C   C30       1.0  0.93491  0.47376  0.68393  1.0000
  C   C31       1.0  0.93490  0.47374  0.61324  1.0000
  C   C32       1.0  0.93495  0.47385  0.96900  1.0000
  C   C33       1.0  0.93496  0.47387  0.03969  1.0000
  C   C34       1.0  0.02157  0.59723  0.03972  1.0000
  C   C35       1.0  0.02156  0.59721  0.96903  1.0000
  C   C36       1.0  0.97824  0.53552  0.93368  1.0000
  C   C37       1.0  0.97824  0.53549  0.85703  1.0000
  C   C38       1.0  0.97823  0.53548  0.79594  1.0000
  H   H1        1.0  0.36471  0.64737  0.24776  1.0000
  H   H2        1.0  0.72051  0.42325  0.40452  1.0000
  O   O14       1.0  0.23100  0.65702  0.24089  1.0000
  C   C39       1.0  0.24823  0.63605  0.17340  1.0000
  H   H3        1.0  0.29955  0.59898  0.17195  1.0000
  H   H4        1.0  0.20843  0.58650  0.15054  1.0000
  C   C40       1.0  0.18847  0.77570  0.13430  1.0000
  C   C41       1.0  0.25150  0.73018  0.13252  1.0000
  H   H5        1.0  0.19049  0.83376  0.10908  1.0000
  H   H6        1.0  0.17686  0.78982  0.17977  1.0000
  H   H7        1.0  0.15531  0.73440  0.11525  1.0000
  H   H8        1.0  0.28466  0.77148  0.15157  1.0000
  H   H9        1.0  0.26312  0.71606  0.08705  1.0000
  H   H10       1.0  0.59224  0.64739  0.24775  1.0000
  O   O15       1.0  0.89294  0.41379  0.93470  1.0000
  C   C42       1.0  0.90768  0.31765  0.95197  1.0000
  H   H11       1.0  0.96176  0.31277  0.97140  1.0000
  H   H12       1.0  0.87140  0.29247  0.99301  1.0000
  C   C43       1.0  0.83333  0.25926  0.86532  1.0000
  C   C44       1.0  0.89975  0.25325  0.88917  1.0000
  H   H13       1.0  0.82843  0.21953  0.82658  1.0000
  H   H14       1.0  0.82339  0.32403  0.85368  1.0000
  H   H15       1.0  0.80310  0.23827  0.89952  1.0000
  H   H16       1.0  0.92997  0.27425  0.85497  1.0000
  H   H17       1.0  0.90969  0.18849  0.90080  1.0000
  O   O16       1.0  0.58682  0.41344  0.41134  1.0000
  C   C45       1.0  0.63318  0.35893  0.44948  1.0000
  H   H18       1.0  0.68356  0.35566  0.42175  1.0000
  H   H19       1.0  0.64072  0.39414  0.50093  1.0000
  C   C46       1.0  0.54371  0.26026  0.49315  1.0000
  C   C47       1.0  0.60558  0.25624  0.45909  1.0000
  H   H20       1.0  0.52668  0.19692  0.49909  1.0000
  H   H21       1.0  0.51247  0.29699  0.46746  1.0000
  H   H22       1.0  0.55000  0.28961  0.53603  1.0000
  H   H23       1.0  0.59928  0.22690  0.41621  1.0000
  H   H24       1.0  0.63681  0.21951  0.48478  1.0000
  O   O17       1.0  0.72594  0.65713  0.24088  1.0000
  C   C48       1.0  0.67958  0.71166  0.20275  1.0000
  H   H25       1.0  0.62918  0.67215  0.20036  1.0000
  H   H26       1.0  0.67209  0.78487  0.22762  1.0000
  C   C49       1.0  0.76904  0.77421  0.13366  1.0000
  C   C50       1.0  0.70714  0.72569  0.13072  1.0000
  H   H27       1.0  0.78604  0.78287  0.08923  1.0000
  H   H28       1.0  0.80027  0.73748  0.15934  1.0000
  H   H29       1.0  0.76279  0.83522  0.15439  1.0000
  H   H30       1.0  0.71339  0.66468  0.11000  1.0000
  H   H31       1.0  0.67591  0.76241  0.10503  1.0000
  H   H32       1.0  0.89962  0.42351  0.58445  1.0000
  O   O18       1.0  0.37020  0.41349  0.41141  1.0000
  C   C51       1.0  0.32386  0.35896  0.44954  1.0000
  H   H33       1.0  0.27347  0.39845  0.45193  1.0000
  H   H34       1.0  0.31631  0.28574  0.42467  1.0000
  C   C52       1.0  0.41335  0.29641  0.51862  1.0000
  C   C53       1.0  0.35147  0.34493  0.52156  1.0000
  H   H35       1.0  0.43039  0.28776  0.56304  1.0000
  H   H36       1.0  0.44457  0.33315  0.49292  1.0000
  H   H37       1.0  0.40706  0.23541  0.49789  1.0000
  H   H38       1.0  0.35777  0.40594  0.54228  1.0000
  H   H39       1.0  0.32025  0.30820  0.54726  1.0000
  O   O19       1.0  0.06368  0.65699  0.93468  1.0000
  C   C54       1.0  0.10737  0.60207  0.89377  1.0000
  H   H40       1.0  0.11155  0.52611  0.91507  1.0000
  H   H41       1.0  0.08642  0.59872  0.84020  1.0000
  C   C55       1.0  0.17260  0.74251  0.86654  1.0000
  C   C56       1.0  0.17774  0.64921  0.89270  1.0000
  H   H42       1.0  0.21601  0.77159  0.86587  1.0000
  H   H43       1.0  0.14317  0.77951  0.89410  1.0000
  H   H44       1.0  0.15514  0.73971  0.82190  1.0000
  H   H45       1.0  0.19519  0.65202  0.93734  1.0000
  H   H46       1.0  0.20718  0.61221  0.86515  1.0000
  H   H47       1.0  0.23650  0.42322  0.40456  1.0000
  O   O20       1.0  0.06360  0.65709  0.57906  1.0000
  C   C57       1.0  0.10184  0.71153  0.62543  1.0000
  H   H48       1.0  0.07412  0.71489  0.67582  1.0000
  H   H49       1.0  0.15323  0.67621  0.63296  1.0000
  C   C58       1.0  0.14566  0.81006  0.53598  1.0000
  C   C59       1.0  0.11162  0.81419  0.59786  1.0000
  H   H50       1.0  0.15169  0.87338  0.51897  1.0000
  H   H51       1.0  0.11990  0.77338  0.50474  1.0000
  H   H52       1.0  0.18849  0.78062  0.54226  1.0000
  H   H53       1.0  0.06879  0.84362  0.59158  1.0000
  H   H54       1.0  0.13737  0.85088  0.62910  1.0000
  O   O21       1.0  0.89275  0.41395  0.71821  1.0000
  C   C60       1.0  0.82529  0.43502  0.70092  1.0000
  H   H55       1.0  0.82190  0.51208  0.68150  1.0000
  H   H56       1.0  0.80758  0.38330  0.65987  1.0000
  C   C61       1.0  0.78430  0.32918  0.78755  1.0000
  C   C62       1.0  0.78013  0.42382  0.76371  1.0000
  H   H57       1.0  0.75644  0.32226  0.82628  1.0000
  H   H58       1.0  0.82975  0.31498  0.79920  1.0000
  H   H59       1.0  0.76954  0.28609  0.75334  1.0000
  H   H60       1.0  0.79490  0.46691  0.79791  1.0000
  H   H61       1.0  0.73468  0.43802  0.75206  1.0000
  O   O22       1.0  0.89299  0.41386  0.07404  1.0000
  C   C63       1.0  0.93151  0.35158  0.11494  1.0000
  H   H62       1.0  0.98482  0.34561  0.09364  1.0000
  H   H63       1.0  0.93387  0.38142  0.16851  1.0000
  C   C64       1.0  0.83295  0.25865  0.14216  1.0000
  C   C65       1.0  0.89841  0.25131  0.11600  1.0000
  H   H64       1.0  0.81253  0.19680  0.14282  1.0000
  H   H65       1.0  0.80699  0.30061  0.11461  1.0000
  H   H66       1.0  0.83492  0.28352  0.18681  1.0000
  H   H67       1.0  0.89644  0.22645  0.07136  1.0000
  H   H68       1.0  0.92437  0.20934  0.14355  1.0000
  H   H69       1.0  0.05679  0.64736  0.71275  1.0000
  H   H70       1.0  0.05684  0.64747  0.06852  1.0000
