data_image0
_chemical_formula_structural       Zn8O26C92H22N2H6N2H6N2H8N2H4N2H6N2H4N2H4N2H4N2H4N2H6N2H4
_chemical_formula_sum              "Zn8 O26 C92 H78 N22"
_cell_length_a       19.1212
_cell_length_b       19.1211
_cell_length_c       17.0774
_cell_angle_alpha    92.4079
_cell_angle_beta     87.5369
_cell_angle_gamma    95.0025

_space_group_name_H-M_alt    "P 1"
_space_group_IT_number       1

loop_
  _space_group_symop_operation_xyz
  'x, y, z'

loop_
  _atom_site_type_symbol
  _atom_site_label
  _atom_site_symmetry_multiplicity
  _atom_site_fract_x
  _atom_site_fract_y
  _atom_site_fract_z
  _atom_site_occupancy
  Zn  Zn1       1.0  0.06373  0.76567  0.49415  1.0000
  Zn  Zn2       1.0  0.56373  0.26567  0.99415  1.0000
  Zn  Zn3       1.0  0.05862  0.64799  0.62006  1.0000
  Zn  Zn4       1.0  0.55862  0.14799  0.12006  1.0000
  Zn  Zn5       1.0  0.94607  0.76063  0.63079  1.0000
  Zn  Zn6       1.0  0.44607  0.26063  0.13079  1.0000
  Zn  Zn7       1.0  0.94101  0.64303  0.49422  1.0000
  Zn  Zn8       1.0  0.44101  0.14303  0.99422  1.0000
  O   O1        1.0  0.00236  0.70433  0.55980  1.0000
  O   O2        1.0  0.50236  0.20433  0.05980  1.0000
  O   O3        1.0  0.16152  0.75424  0.50633  1.0000
  O   O4        1.0  0.66152  0.25424  0.00633  1.0000
  O   O5        1.0  0.04367  0.66290  0.73133  1.0000
  O   O6        1.0  0.54367  0.16290  0.23133  1.0000
  O   O7        1.0  0.96593  0.85977  0.61712  1.0000
  O   O8        1.0  0.46593  0.35977  0.11712  1.0000
  O   O9        1.0  0.15777  0.66778  0.59884  1.0000
  O   O10       1.0  0.65777  0.16778  0.09884  1.0000
  O   O11       1.0  0.05238  0.86346  0.51673  1.0000
  O   O12       1.0  0.55238  0.36346  0.01673  1.0000
  O   O13       1.0  0.96098  0.74566  0.73921  1.0000
  O   O14       1.0  0.46098  0.24566  0.23921  1.0000
  O   O15       1.0  0.84693  0.74085  0.61719  1.0000
  O   O16       1.0  0.34693  0.24085  0.11719  1.0000
  O   O17       1.0  0.95731  0.65933  0.38436  1.0000
  O   O18       1.0  0.45731  0.15933  0.88437  1.0000
  O   O19       1.0  0.84321  0.65444  0.51686  1.0000
  O   O20       1.0  0.34321  0.15444  0.01686  1.0000
  O   O21       1.0  0.04747  0.74943  0.38431  1.0000
  O   O22       1.0  0.54747  0.24943  0.88431  1.0000
  O   O23       1.0  0.03877  0.54887  0.59891  1.0000
  O   O24       1.0  0.53877  0.04887  0.09891  1.0000
  O   O25       1.0  0.95235  0.54522  0.50645  1.0000
  O   O26       1.0  0.45235  0.04522  0.00645  1.0000
  C   C1        1.0  0.81954  0.69656  0.56820  1.0000
  C   C2        1.0  0.31954  0.19656  0.06820  1.0000
  C   C3        1.0  0.74133  0.69322  0.57177  1.0000
  C   C4        1.0  0.24133  0.19322  0.07177  1.0000
  C   C5        1.0  0.29889  0.67208  0.59436  1.0000
  C   C6        1.0  0.79889  0.17208  0.09436  1.0000
  C   C7        1.0  0.37238  0.67522  0.59101  1.0000
  C   C8        1.0  0.87238  0.17522  0.09101  1.0000
  C   C9        1.0  0.41107  0.72173  0.54109  1.0000
  C   C10       1.0  0.91107  0.22173  0.04109  1.0000
  C   C11       1.0  0.37628  0.76511  0.49452  1.0000
  C   C12       1.0  0.87628  0.26511  0.99452  1.0000
  C   C13       1.0  0.30279  0.76197  0.49787  1.0000
  C   C14       1.0  0.80279  0.26197  0.99787  1.0000
  C   C15       1.0  0.63305  0.73346  0.52855  1.0000
  C   C16       1.0  0.13305  0.23346  0.02855  1.0000
  C   C17       1.0  0.70654  0.73659  0.52520  1.0000
  C   C18       1.0  0.20654  0.23659  0.02520  1.0000
  C   C19       1.0  0.70263  0.64671  0.62169  1.0000
  C   C20       1.0  0.20263  0.14671  0.12169  1.0000
  C   C21       1.0  0.62915  0.64357  0.62504  1.0000
  C   C22       1.0  0.12915  0.14357  0.12504  1.0000
  C   C23       1.0  0.59436  0.68695  0.57847  1.0000
  C   C24       1.0  0.09436  0.18695  0.07847  1.0000
  C   C25       1.0  0.48619  0.72494  0.53766  1.0000
  C   C26       1.0  0.98619  0.22494  0.03766  1.0000
  C   C27       1.0  0.51924  0.68374  0.58190  1.0000
  C   C28       1.0  0.01924  0.18374  0.08190  1.0000
  C   C29       1.0  0.99448  0.52151  0.55151  1.0000
  C   C30       1.0  0.49448  0.02151  0.05151  1.0000
  C   C31       1.0  0.99117  0.44331  0.54793  1.0000
  C   C32       1.0  0.49117  0.94331  0.04793  1.0000
  C   C33       1.0  0.03464  0.40849  0.59434  1.0000
  C   C34       1.0  0.53464  0.90849  0.09434  1.0000
  C   C35       1.0  0.03153  0.33500  0.59096  1.0000
  C   C36       1.0  0.53153  0.83500  0.09097  1.0000
  C   C37       1.0  0.98495  0.29634  0.54119  1.0000
  C   C38       1.0  0.48495  0.79634  0.04119  1.0000
  C   C39       1.0  0.94148  0.33117  0.49477  1.0000
  C   C40       1.0  0.44148  0.83116  0.99477  1.0000
  C   C41       1.0  0.94459  0.40465  0.49814  1.0000
  C   C42       1.0  0.44459  0.90465  0.99814  1.0000
  C   C43       1.0  0.97331  0.07438  0.52861  1.0000
  C   C44       1.0  0.47331  0.57438  0.02861  1.0000
  C   C45       1.0  0.97020  0.00089  0.52525  1.0000
  C   C46       1.0  0.47020  0.50089  0.02525  1.0000
  C   C47       1.0  0.06026  0.00473  0.62144  1.0000
  C   C48       1.0  0.56026  0.50473  0.12144  1.0000
  C   C49       1.0  0.06336  0.07822  0.62481  1.0000
  C   C50       1.0  0.56336  0.57822  0.12481  1.0000
  C   C51       1.0  0.01989  0.11303  0.57839  1.0000
  C   C52       1.0  0.51989  0.61303  0.07839  1.0000
  C   C53       1.0  0.98177  0.22123  0.53774  1.0000
  C   C54       1.0  0.48177  0.72123  0.03774  1.0000
  C   C55       1.0  0.02307  0.18814  0.58183  1.0000
  C   C56       1.0  0.52307  0.68815  0.08183  1.0000
  C   C57       1.0  0.18589  0.71213  0.55138  1.0000
  C   C58       1.0  0.68589  0.21213  0.05138  1.0000
  C   C59       1.0  0.26410  0.71545  0.54779  1.0000
  C   C60       1.0  0.76410  0.21545  0.04779  1.0000
  C   C61       1.0  0.00240  0.70438  0.35506  1.0000
  C   C62       1.0  0.50240  0.20439  0.85506  1.0000
  C   C63       1.0  0.00241  0.70441  0.26781  1.0000
  C   C64       1.0  0.50241  0.20441  0.76781  1.0000
  C   C65       1.0  0.01029  0.88786  0.56812  1.0000
  C   C66       1.0  0.51029  0.38786  0.06812  1.0000
  C   C67       1.0  0.01367  0.96607  0.57166  1.0000
  C   C68       1.0  0.51367  0.46607  0.07166  1.0000
  C   C69       1.0  0.95937  0.74751  0.23093  1.0000
  C   C70       1.0  0.45937  0.24751  0.73093  1.0000
  C   C71       1.0  0.95938  0.74752  0.14894  1.0000
  C   C72       1.0  0.45938  0.24752  0.64894  1.0000
  C   C73       1.0  0.00244  0.70444  0.10385  1.0000
  C   C74       1.0  0.50244  0.20444  0.60385  1.0000
  C   C75       1.0  0.04549  0.66134  0.14074  1.0000
  C   C76       1.0  0.54549  0.16134  0.64074  1.0000
  C   C77       1.0  0.04547  0.66132  0.22272  1.0000
  C   C78       1.0  0.54547  0.16132  0.72272  1.0000
  C   C79       1.0  0.04552  0.66139  0.96987  1.0000
  C   C80       1.0  0.54552  0.16139  0.46987  1.0000
  C   C81       1.0  0.04554  0.66141  0.88789  1.0000
  C   C82       1.0  0.54554  0.16141  0.38789  1.0000
  C   C83       1.0  0.95943  0.74759  0.89610  1.0000
  C   C84       1.0  0.45943  0.24759  0.39610  1.0000
  C   C85       1.0  0.95941  0.74757  0.97808  1.0000
  C   C86       1.0  0.45941  0.24757  0.47808  1.0000
  C   C87       1.0  0.00246  0.70447  0.01496  1.0000
  C   C88       1.0  0.50246  0.20447  0.51496  1.0000
  C   C89       1.0  0.00236  0.70433  0.76375  1.0000
  C   C90       1.0  0.50236  0.20433  0.26375  1.0000
  C   C91       1.0  0.00249  0.70451  0.85100  1.0000
  C   C92       1.0  0.50249  0.20451  0.35100  1.0000
  H   H1        1.0  0.59764  0.60570  0.66569  1.0000
  H   H2        1.0  0.09764  0.10570  0.16569  1.0000
  H   H3        1.0  0.73805  0.77447  0.48455  1.0000
  H   H4        1.0  0.23805  0.27447  0.98455  1.0000
  H   H5        1.0  0.93791  0.10272  0.49082  1.0000
  H   H6        1.0  0.43791  0.60272  0.99082  1.0000
  H   H7        1.0  0.40070  0.63990  0.62893  1.0000
  H   H8        1.0  0.90070  0.13990  0.12893  1.0000
  H   H9        1.0  0.09565  0.97638  0.65923  1.0000
  H   H10       1.0  0.59565  0.47638  0.15923  1.0000
  H   H11       1.0  0.92438  0.78268  0.86606  1.0000
  H   H12       1.0  0.42438  0.28268  0.36606  1.0000
  H   H13       1.0  0.90355  0.29968  0.45424  1.0000
  H   H14       1.0  0.40355  0.79968  0.95424  1.0000
  H   H15       1.0  0.90919  0.43300  0.46035  1.0000
  H   H16       1.0  0.40919  0.93300  0.96035  1.0000
  H   H17       1.0  0.27447  0.79729  0.45995  1.0000
  H   H18       1.0  0.77447  0.29729  0.95995  1.0000
  H   H19       1.0  0.08055  0.62626  0.10402  1.0000
  H   H20       1.0  0.58055  0.12626  0.60402  1.0000
  H   H21       1.0  0.92435  0.78265  0.01479  1.0000
  H   H22       1.0  0.42435  0.28265  0.51479  1.0000
  N   N1        1.0  0.09198  0.61495  0.83925  1.0000
  N   N2        1.0  0.59198  0.11495  0.33925  1.0000
  H   H23       1.0  0.11925  0.58764  0.87505  1.0000
  H   H24       1.0  0.61925  0.08764  0.37505  1.0000
  H   H25       1.0  0.06194  0.58118  0.80507  1.0000
  H   H26       1.0  0.56194  0.08118  0.30507  1.0000
  H   H27       1.0  0.08058  0.62630  0.99990  1.0000
  H   H28       1.0  0.58058  0.12630  0.49990  1.0000
  N   N3        1.0  0.07331  0.22984  0.63552  1.0000
  N   N4        1.0  0.57331  0.72984  0.13552  1.0000
  H   H29       1.0  0.10038  0.19664  0.66441  1.0000
  H   H30       1.0  0.60038  0.69664  0.16442  1.0000
  H   H31       1.0  0.10715  0.26177  0.60344  1.0000
  H   H32       1.0  0.60715  0.76176  0.10344  1.0000
  H   H33       1.0  0.08053  0.62623  0.25275  1.0000
  H   H34       1.0  0.58053  0.12623  0.75275  1.0000
  N   N5        1.0  0.93152  0.17953  0.48406  1.0000
  N   N6        1.0  0.43152  0.67953  0.98406  1.0000
  H   H35       1.0  0.95881  0.15030  0.44495  1.0000
  H   H36       1.0  0.45881  0.65030  0.94495  1.0000
  H   H37       1.0  0.89766  0.14765  0.51615  1.0000
  H   H38       1.0  0.39766  0.64765  0.01615  1.0000
  H   H39       1.0  0.48773  0.64587  0.62255  1.0000
  H   H40       1.0  0.98773  0.14587  0.12255  1.0000
  H   H41       1.0  0.07257  0.43996  0.63487  1.0000
  H   H42       1.0  0.57257  0.93996  0.13487  1.0000
  N   N7        1.0  0.25715  0.62191  0.64820  1.0000
  N   N8        1.0  0.75715  0.12191  0.14820  1.0000
  H   H43       1.0  0.26778  0.57217  0.63324  1.0000
  H   H44       1.0  0.76778  0.07217  0.13324  1.0000
  H   H45       1.0  0.27041  0.63352  0.70416  1.0000
  H   H46       1.0  0.77041  0.13352  0.20416  1.0000
  N   N9        1.0  0.74015  0.59993  0.67192  1.0000
  N   N10       1.0  0.24015  0.09992  0.17192  1.0000
  H   H47       1.0  0.79258  0.60897  0.66222  1.0000
  H   H48       1.0  0.29258  0.10897  0.16222  1.0000
  H   H49       1.0  0.72776  0.61040  0.72905  1.0000
  H   H50       1.0  0.22776  0.11040  0.22905  1.0000
  H   H51       1.0  0.93227  0.96941  0.48470  1.0000
  H   H52       1.0  0.43227  0.46941  0.98470  1.0000
  N   N11       1.0  0.91292  0.79398  0.27955  1.0000
  N   N12       1.0  0.41292  0.29398  0.77955  1.0000
  H   H53       1.0  0.86218  0.78092  0.26710  1.0000
  H   H54       1.0  0.36218  0.28092  0.76710  1.0000
  H   H55       1.0  0.91950  0.78741  0.33706  1.0000
  H   H56       1.0  0.41950  0.28741  0.83707  1.0000
  N   N13       1.0  0.59553  0.78025  0.47834  1.0000
  N   N14       1.0  0.09553  0.28025  0.97834  1.0000
  H   H57       1.0  0.63120  0.81020  0.44621  1.0000
  H   H58       1.0  0.13120  0.31020  0.94621  1.0000
  H   H59       1.0  0.56382  0.75028  0.44215  1.0000
  H   H60       1.0  0.06382  0.25028  0.94215  1.0000
  N   N15       1.0  0.91296  0.79403  0.10917  1.0000
  N   N16       1.0  0.41296  0.29403  0.60918  1.0000
  H   H61       1.0  0.94298  0.82785  0.07533  1.0000
  H   H62       1.0  0.44298  0.32785  0.57533  1.0000
  H   H63       1.0  0.87912  0.76402  0.07540  1.0000
  H   H64       1.0  0.37912  0.26402  0.57540  1.0000
  N   N17       1.0  0.41801  0.81526  0.44065  1.0000
  N   N18       1.0  0.91801  0.31526  0.94066  1.0000
  H   H65       1.0  0.46984  0.81066  0.44559  1.0000
  H   H66       1.0  0.96984  0.31066  0.94559  1.0000
  H   H67       1.0  0.40470  0.80368  0.38470  1.0000
  H   H68       1.0  0.90470  0.30368  0.88470  1.0000
  N   N19       1.0  0.07842  0.29745  0.64102  1.0000
  N   N20       1.0  0.57842  0.79745  0.14102  1.0000
  H   H69       1.0  0.12923  0.31243  0.62707  1.0000
  H   H70       1.0  0.62923  0.81243  0.12707  1.0000
  H   H71       1.0  0.06799  0.30974  0.69818  1.0000
  H   H72       1.0  0.56799  0.80974  0.19818  1.0000
  H   H73       1.0  0.10129  0.10969  0.66534  1.0000
  H   H74       1.0  0.60129  0.60969  0.16534  1.0000
  N   N21       1.0  0.52792  0.77510  0.48380  1.0000
  N   N22       1.0  0.02792  0.27510  0.98380  1.0000
  H   H75       1.0  0.51467  0.76354  0.42782  1.0000
  H   H76       1.0  0.01467  0.26354  0.92782  1.0000
  H   H77       1.0  0.51727  0.82482  0.49882  1.0000
  H   H78       1.0  0.01727  0.32482  0.99882  1.0000
