data_image0
_chemical_formula_structural       Zn4O13C42HOCH2C2H5OCH2C2H7OCH2C2H5OCH2C2H5OCH2C2H6OCH2C2H5OCH2C2H5OCH2C2H5OCH2C2H5OCH2C2H5OCH2C2H5OCH2C2H5
_chemical_formula_sum              "Zn4 O25 C78 H88"
_cell_length_a       18.2154
_cell_length_b       16.9595
_cell_length_c       18.2154
_cell_angle_alpha    90.008
_cell_angle_beta     90.0102
_cell_angle_gamma    90.0205

_space_group_name_H-M_alt    "P 1"
_space_group_IT_number       1

loop_
  _space_group_symop_operation_xyz
  'x, y, z'

loop_
  _atom_site_type_symbol
  _atom_site_label
  _atom_site_symmetry_multiplicity
  _atom_site_fract_x
  _atom_site_fract_y
  _atom_site_fract_z
  _atom_site_occupancy
  Zn  Zn1       1.0  0.12503  0.68520  0.41614  1.0000
  Zn  Zn2       1.0  0.12497  0.55305  0.29308  1.0000
  Zn  Zn3       1.0  0.00198  0.68521  0.29308  1.0000
  Zn  Zn4       1.0  0.00194  0.55306  0.41611  1.0000
  O   O1        1.0  0.06348  0.61913  0.35460  1.0000
  O   O2        1.0  0.22800  0.66766  0.39983  1.0000
  O   O3        1.0  0.10865  0.57058  0.19010  1.0000
  O   O4        1.0  0.01835  0.79582  0.30942  1.0000
  O   O5        1.0  0.22796  0.57057  0.30942  1.0000
  O   O6        1.0  0.10875  0.79581  0.39983  1.0000
  O   O7        1.0  0.01829  0.66768  0.19010  1.0000
  O   O8        1.0  0.89899  0.66768  0.30939  1.0000
  O   O9        1.0  0.01827  0.57058  0.51909  1.0000
  O   O10       1.0  0.89896  0.57059  0.39977  1.0000
  O   O11       1.0  0.10871  0.66767  0.51912  1.0000
  O   O12       1.0  0.10860  0.44244  0.30938  1.0000
  O   O13       1.0  0.01821  0.44244  0.39977  1.0000
  C   C1        1.0  0.87227  0.61914  0.35458  1.0000
  C   C2        1.0  0.79047  0.61913  0.35459  1.0000
  C   C3        1.0  0.60228  0.56849  0.40159  1.0000
  C   C4        1.0  0.52542  0.56849  0.40160  1.0000
  C   C5        1.0  0.52543  0.66975  0.30763  1.0000
  C   C6        1.0  0.60228  0.66975  0.30762  1.0000
  C   C7        1.0  0.64071  0.61912  0.35460  1.0000
  C   C8        1.0  0.48699  0.61911  0.35462  1.0000
  C   C9        1.0  0.40366  0.61911  0.35463  1.0000
  C   C10       1.0  0.72405  0.61912  0.35460  1.0000
  C   C11       1.0  0.06342  0.41376  0.35459  1.0000
  C   C12       1.0  0.06346  0.32590  0.35461  1.0000
  C   C13       1.0  0.01648  0.95440  0.40166  1.0000
  C   C14       1.0  0.11068  0.95446  0.30762  1.0000
  C   C15       1.0  0.11065  0.03700  0.30761  1.0000
  C   C16       1.0  0.06354  0.07825  0.35463  1.0000
  C   C17       1.0  0.01645  0.03695  0.40165  1.0000
  C   C18       1.0  0.15774  0.07830  0.26058  1.0000
  C   C19       1.0  0.15771  0.16085  0.26057  1.0000
  C   C20       1.0  0.11060  0.20211  0.30760  1.0000
  C   C21       1.0  0.06351  0.16080  0.35462  1.0000
  C   C22       1.0  0.01640  0.20205  0.40164  1.0000
  C   C23       1.0  0.96931  0.16075  0.44867  1.0000
  C   C24       1.0  0.96934  0.07821  0.44868  1.0000
  C   C25       1.0  0.11057  0.28465  0.30759  1.0000
  C   C26       1.0  0.01637  0.28461  0.40163  1.0000
  C   C27       1.0  0.25543  0.61911  0.35462  1.0000
  C   C28       1.0  0.33723  0.61911  0.35463  1.0000
  C   C29       1.0  0.06349  0.61912  0.54656  1.0000
  C   C30       1.0  0.06350  0.61912  0.62835  1.0000
  C   C31       1.0  0.06356  0.82530  0.35463  1.0000
  C   C32       1.0  0.06359  0.91315  0.35464  1.0000
  C   C33       1.0  0.11057  0.66967  0.81656  1.0000
  C   C34       1.0  0.11057  0.66967  0.89342  1.0000
  C   C35       1.0  0.01640  0.56857  0.89338  1.0000
  C   C36       1.0  0.01640  0.56857  0.81653  1.0000
  C   C37       1.0  0.06349  0.61912  0.77812  1.0000
  C   C38       1.0  0.06348  0.61912  0.93183  1.0000
  C   C39       1.0  0.06348  0.61912  0.01517  1.0000
  C   C40       1.0  0.06349  0.61912  0.69478  1.0000
  C   C41       1.0  0.06347  0.61911  0.16340  1.0000
  C   C42       1.0  0.06348  0.61912  0.08160  1.0000
  H   H1        1.0  0.63356  0.52727  0.43985  1.0000
  O   O14       1.0  0.48821  0.51923  0.44727  1.0000
  C   C43       1.0  0.53861  0.47456  0.48874  1.0000
  H   H2        1.0  0.59338  0.47188  0.45859  1.0000
  H   H3        1.0  0.54680  0.50342  0.54468  1.0000
  C   C44       1.0  0.44131  0.39372  0.53626  1.0000
  C   C45       1.0  0.50859  0.39041  0.49922  1.0000
  H   H4        1.0  0.42279  0.34181  0.54272  1.0000
  H   H5        1.0  0.40736  0.42381  0.50832  1.0000
  H   H6        1.0  0.44815  0.41776  0.58287  1.0000
  H   H7        1.0  0.50174  0.36638  0.45261  1.0000
  H   H8        1.0  0.54254  0.36031  0.52715  1.0000
  O   O15       1.0  0.15634  0.32486  0.26201  1.0000
  C   C46       1.0  0.20384  0.37264  0.30395  1.0000
  H   H9        1.0  0.17785  0.38500  0.35969  1.0000
  H   H10       1.0  0.25839  0.34087  0.31208  1.0000
  C   C47       1.0  0.24910  0.43587  0.19499  1.0000
  C   C48       1.0  0.21717  0.45106  0.26346  1.0000
  H   H11       1.0  0.25732  0.48424  0.17001  1.0000
  H   H12       1.0  0.21710  0.40368  0.16674  1.0000
  H   H13       1.0  0.29455  0.40939  0.20178  1.0000
  H   H14       1.0  0.17172  0.47753  0.25667  1.0000
  H   H15       1.0  0.24916  0.48325  0.29171  1.0000
  H   H16       1.0  0.14891  0.71083  0.78529  1.0000
  H   H17       1.0  0.97800  0.31819  0.43992  1.0000
  O   O16       1.0  0.48798  0.71885  0.26202  1.0000
  C   C49       1.0  0.41191  0.70801  0.27211  1.0000
  H   H18       1.0  0.40140  0.64697  0.29611  1.0000
  H   H19       1.0  0.39012  0.75482  0.31138  1.0000
  C   C50       1.0  0.38534  0.79035  0.16818  1.0000
  C   C51       1.0  0.37243  0.71537  0.19765  1.0000
  H   H20       1.0  0.36099  0.79490  0.12225  1.0000
  H   H21       1.0  0.43659  0.79766  0.16138  1.0000
  H   H22       1.0  0.36718  0.82935  0.20091  1.0000
  H   H23       1.0  0.39060  0.67637  0.16493  1.0000
  H   H24       1.0  0.32118  0.70806  0.20444  1.0000
  O   O17       1.0  0.15637  0.71879  0.93065  1.0000
  C   C52       1.0  0.19792  0.76342  0.88027  1.0000
  H   H25       1.0  0.20046  0.73104  0.82548  1.0000
  H   H26       1.0  0.17099  0.82345  0.87209  1.0000
  C   C53       1.0  0.27313  0.81457  0.97757  1.0000
  C   C54       1.0  0.27625  0.77480  0.91028  1.0000
  H   H27       1.0  0.32145  0.82160  0.99609  1.0000
  H   H28       1.0  0.24514  0.78451  0.01152  1.0000
  H   H29       1.0  0.25069  0.86459  0.97075  1.0000
  H   H30       1.0  0.29869  0.72478  0.91710  1.0000
  H   H31       1.0  0.30425  0.80486  0.87634  1.0000
  O   O18       1.0  0.97073  0.51949  0.93081  1.0000
  C   C55       1.0  0.98081  0.53034  0.00689  1.0000
  H   H32       1.0  0.03761  0.55622  0.01740  1.0000
  H   H33       1.0  0.93717  0.57243  0.02870  1.0000
  C   C56       1.0  0.90427  0.41857  0.03342  1.0000
  C   C57       1.0  0.97404  0.45035  0.04633  1.0000
  H   H34       1.0  0.90009  0.36923  0.05775  1.0000
  H   H35       1.0  0.89747  0.41126  0.98216  1.0000
  H   H36       1.0  0.86791  0.45365  0.05160  1.0000
  H   H37       1.0  0.01039  0.41527  0.02815  1.0000
  H   H38       1.0  0.98084  0.45765  0.09759  1.0000
  H   H39       1.0  0.93095  0.19435  0.48695  1.0000
  O   O19       1.0  0.97064  0.51939  0.77929  1.0000
  C   C58       1.0  0.92907  0.47479  0.82967  1.0000
  H   H40       1.0  0.95920  0.47204  0.88446  1.0000
  H   H41       1.0  0.87318  0.50373  0.83784  1.0000
  C   C59       1.0  0.88141  0.39404  0.73236  1.0000
  C   C60       1.0  0.91843  0.39066  0.79965  1.0000
  H   H42       1.0  0.87485  0.34214  0.71384  1.0000
  H   H43       1.0  0.90942  0.42409  0.69841  1.0000
  H   H44       1.0  0.83485  0.41816  0.73917  1.0000
  H   H45       1.0  0.96500  0.36654  0.79283  1.0000
  H   H46       1.0  0.89043  0.36060  0.83359  1.0000
  O   O20       1.0  0.63958  0.71885  0.26187  1.0000
  C   C61       1.0  0.62077  0.70171  0.18849  1.0000
  H   H47       1.0  0.59962  0.63857  0.18468  1.0000
  H   H48       1.0  0.57617  0.74412  0.16933  1.0000
  C   C62       1.0  0.71501  0.78854  0.14408  1.0000
  C   C63       1.0  0.68905  0.71099  0.13939  1.0000
  H   H49       1.0  0.75713  0.79427  0.11379  1.0000
  H   H50       1.0  0.72769  0.80010  0.19351  1.0000
  H   H51       1.0  0.67784  0.82387  0.12810  1.0000
  H   H52       1.0  0.72622  0.67566  0.15538  1.0000
  H   H53       1.0  0.67638  0.69943  0.08996  1.0000
  O   O21       1.0  0.92370  0.03800  0.49439  1.0000
  C   C64       1.0  0.96558  0.99030  0.54197  1.0000
  H   H54       1.0  0.02138  0.97798  0.51607  1.0000
  H   H55       1.0  0.97361  0.02213  0.59652  1.0000
  C   C65       1.0  0.85657  0.92700  0.58707  1.0000
  C   C66       1.0  0.92510  0.91185  0.55525  1.0000
  H   H56       1.0  0.83161  0.87861  0.59526  1.0000
  H   H57       1.0  0.82836  0.95913  0.55501  1.0000
  H   H58       1.0  0.86328  0.95352  0.63252  1.0000
  H   H59       1.0  0.91840  0.88534  0.50980  1.0000
  H   H60       1.0  0.95332  0.87971  0.58730  1.0000
  O   O22       1.0  0.97076  0.91417  0.44728  1.0000
  C   C67       1.0  0.98090  0.83246  0.43722  1.0000
  H   H61       1.0  0.00505  0.82119  0.38045  1.0000
  H   H62       1.0  0.02007  0.80908  0.48091  1.0000
  C   C68       1.0  0.87679  0.80387  0.51363  1.0000
  C   C69       1.0  0.90645  0.79002  0.44390  1.0000
  H   H63       1.0  0.83086  0.77769  0.51775  1.0000
  H   H64       1.0  0.86996  0.85892  0.52041  1.0000
  H   H65       1.0  0.90944  0.78439  0.55003  1.0000
  H   H66       1.0  0.87381  0.80951  0.40750  1.0000
  H   H67       1.0  0.91327  0.73498  0.43711  1.0000
  O   O23       1.0  0.15639  0.91427  0.26199  1.0000
  C   C70       1.0  0.14629  0.83255  0.27205  1.0000
  H   H68       1.0  0.12218  0.82126  0.32883  1.0000
  H   H69       1.0  0.10710  0.80911  0.22838  1.0000
  C   C71       1.0  0.25036  0.80407  0.19557  1.0000
  C   C72       1.0  0.22076  0.79020  0.26532  1.0000
  H   H70       1.0  0.29630  0.77794  0.19141  1.0000
  H   H71       1.0  0.25717  0.85912  0.18879  1.0000
  H   H72       1.0  0.21770  0.78453  0.15919  1.0000
  H   H73       1.0  0.25342  0.80974  0.30170  1.0000
  H   H74       1.0  0.21396  0.73515  0.27210  1.0000
  O   O24       1.0  0.20352  0.03816  0.21498  1.0000
  C   C73       1.0  0.25103  0.99040  0.25688  1.0000
  H   H75       1.0  0.25562  0.01530  0.31483  1.0000
  H   H76       1.0  0.22823  0.92785  0.25943  1.0000
  C   C74       1.0  0.32187  0.95850  0.14971  1.0000
  C   C75       1.0  0.32752  0.98909  0.22089  1.0000
  H   H77       1.0  0.36905  0.95769  0.12752  1.0000
  H   H78       1.0  0.28986  0.99068  0.12149  1.0000
  H   H79       1.0  0.30287  0.90638  0.15186  1.0000
  H   H80       1.0  0.34651  0.04122  0.21875  1.0000
  H   H81       1.0  0.35953  0.95692  0.24912  1.0000
  O   O25       1.0  0.20353  0.20085  0.21487  1.0000
  C   C76       1.0  0.24510  0.14674  0.17336  1.0000
  H   H82       1.0  0.24764  0.08790  0.20351  1.0000
  H   H83       1.0  0.21820  0.13793  0.11744  1.0000
  C   C77       1.0  0.32031  0.25127  0.12580  1.0000
  C   C78       1.0  0.32343  0.17901  0.16283  1.0000
  H   H84       1.0  0.36862  0.27118  0.11930  1.0000
  H   H85       1.0  0.29229  0.28773  0.15376  1.0000
  H   H86       1.0  0.29788  0.24392  0.07921  1.0000
  H   H87       1.0  0.34584  0.18636  0.20943  1.0000
  H   H88       1.0  0.35145  0.14255  0.13487  1.0000
