data_image0
_chemical_formula_structural       ZrO12Zr5O20C56H4Cl3HCl4HCl4HClHCl3HClH3
_chemical_formula_sum              "Zr6 O32 C56 H12 Cl16"
_cell_length_a       14.5604
_cell_length_b       14.5604
_cell_length_c       14.5604
_cell_angle_alpha    59.9999
_cell_angle_beta     89.9996
_cell_angle_gamma    60.0002

_space_group_name_H-M_alt    "P 1"
_space_group_IT_number       1

loop_
  _space_group_symop_operation_xyz
  'x, y, z'

loop_
  _atom_site_type_symbol
  _atom_site_label
  _atom_site_symmetry_multiplicity
  _atom_site_fract_x
  _atom_site_fract_y
  _atom_site_fract_z
  _atom_site_occupancy
  Zr  Zr1       1.0  0.88475  0.00530  0.87948  1.0000
  O   O1        1.0  0.73810  0.19690  0.73284  1.0000
  O   O2        1.0  0.92970  0.81369  0.92443  1.0000
  O   O3        1.0  0.92970  0.00530  0.73283  1.0000
  O   O4        1.0  0.73810  0.00529  0.07558  1.0000
  O   O5        1.0  0.08084  0.00530  0.73283  1.0000
  O   O6        1.0  0.73810  0.00529  0.92444  1.0000
  O   O7        1.0  0.08084  0.66256  0.07557  1.0000
  O   O8        1.0  0.73810  0.34804  0.73284  1.0000
  O   O9        1.0  0.06167  0.89251  0.94361  1.0000
  O   O10       1.0  0.94888  0.89250  0.05640  1.0000
  O   O11       1.0  0.94888  0.11809  0.83082  1.0000
  O   O12       1.0  0.83608  0.11809  0.94361  1.0000
  Zr  Zr2       1.0  0.12580  0.00530  0.12053  1.0000
  Zr  Zr3       1.0  0.12580  0.00530  0.87948  1.0000
  Zr  Zr4       1.0  0.88475  0.00529  0.12053  1.0000
  Zr  Zr5       1.0  0.88475  0.24634  0.87949  1.0000
  Zr  Zr6       1.0  0.12580  0.76425  0.12053  1.0000
  O   O13       1.0  0.08084  0.19690  0.07558  1.0000
  O   O14       1.0  0.08084  0.19690  0.73284  1.0000
  O   O15       1.0  0.73810  0.19689  0.07558  1.0000
  O   O16       1.0  0.27245  0.81369  0.26718  1.0000
  O   O17       1.0  0.27244  0.81370  0.92443  1.0000
  O   O18       1.0  0.92971  0.81369  0.26718  1.0000
  O   O19       1.0  0.27244  0.00530  0.92444  1.0000
  O   O20       1.0  0.08084  0.00529  0.26718  1.0000
  O   O21       1.0  0.92971  0.00529  0.26718  1.0000
  O   O22       1.0  0.27244  0.00530  0.07558  1.0000
  O   O23       1.0  0.92970  0.34804  0.73284  1.0000
  O   O24       1.0  0.08084  0.66255  0.26718  1.0000
  O   O25       1.0  0.27244  0.66256  0.26717  1.0000
  O   O26       1.0  0.27245  0.66256  0.07557  1.0000
  O   O27       1.0  0.73810  0.34803  0.92444  1.0000
  O   O28       1.0  0.92970  0.34804  0.92444  1.0000
  O   O29       1.0  0.06167  0.89250  0.16920  1.0000
  O   O30       1.0  0.17446  0.89250  0.05640  1.0000
  O   O31       1.0  0.06167  0.11809  0.94361  1.0000
  O   O32       1.0  0.94888  0.11809  0.05641  1.0000
  C   C1        1.0  0.70376  0.00529  0.00001  1.0000
  C   C2        1.0  0.60143  0.00529  0.00001  1.0000
  C   C3        1.0  0.00527  0.70378  0.00000  1.0000
  C   C4        1.0  0.00527  0.60145  0.00000  1.0000
  C   C5        1.0  0.61223  0.88754  0.05888  1.0000
  C   C6        1.0  0.51607  0.88754  0.05888  1.0000
  C   C7        1.0  0.39832  0.12306  0.94113  1.0000
  C   C8        1.0  0.49448  0.12306  0.94114  1.0000
  C   C9        1.0  0.06415  0.55338  0.94112  1.0000
  C   C10       1.0  0.06415  0.45722  0.94113  1.0000
  C   C11       1.0  0.94640  0.45722  0.05890  1.0000
  C   C12       1.0  0.94640  0.55337  0.05890  1.0000
  C   C13       1.0  0.12302  0.60146  0.88223  1.0000
  C   C14       1.0  0.18190  0.55339  0.82334  1.0000
  C   C15       1.0  0.18190  0.45723  0.82335  1.0000
  C   C16       1.0  0.12302  0.40914  0.88224  1.0000
  C   C17       1.0  0.30679  0.00530  0.00001  1.0000
  C   C18       1.0  0.40912  0.00530  0.00000  1.0000
  C   C19       1.0  0.00527  0.00530  0.69849  1.0000
  C   C20       1.0  0.00527  0.00530  0.59615  1.0000
  C   C21       1.0  0.00527  0.30681  0.00001  1.0000
  C   C22       1.0  0.00527  0.40914  0.00001  1.0000
  C   C23       1.0  0.94639  0.12305  0.48920  1.0000
  C   C24       1.0  0.94640  0.12305  0.39305  1.0000
  C   C25       1.0  0.06416  0.88753  0.51082  1.0000
  C   C26       1.0  0.06417  0.88754  0.60697  1.0000
  C   C27       1.0  0.88750  0.24082  0.47839  1.0000
  C   C28       1.0  0.82861  0.35858  0.37143  1.0000
  C   C29       1.0  0.82862  0.35858  0.27528  1.0000
  C   C30       1.0  0.88751  0.24081  0.28609  1.0000
  C   C31       1.0  0.00527  0.00529  0.30153  1.0000
  C   C32       1.0  0.00527  0.00529  0.40386  1.0000
  C   C33       1.0  0.30679  0.70379  0.00000  1.0000
  C   C34       1.0  0.40912  0.60146  1.00000  1.0000
  C   C35       1.0  0.00527  0.70378  0.30152  1.0000
  C   C36       1.0  0.00528  0.60144  0.40385  1.0000
  C   C37       1.0  0.30679  0.70378  0.30152  1.0000
  C   C38       1.0  0.40912  0.60145  0.40385  1.0000
  C   C39       1.0  0.70376  0.30681  0.69849  1.0000
  C   C40       1.0  0.60143  0.40914  0.59616  1.0000
  C   C41       1.0  0.70376  0.30681  0.00001  1.0000
  C   C42       1.0  0.60143  0.40914  0.00002  1.0000
  C   C43       1.0  0.00527  0.30682  0.69849  1.0000
  C   C44       1.0  0.00527  0.40915  0.59616  1.0000
  C   C45       1.0  0.39832  0.55338  0.94112  1.0000
  C   C46       1.0  0.49448  0.45724  0.94112  1.0000
  C   C47       1.0  0.61223  0.45725  0.05887  1.0000
  C   C48       1.0  0.51607  0.55340  0.05887  1.0000
  C   C49       1.0  0.06415  0.55336  0.51081  1.0000
  C   C50       1.0  0.06414  0.45722  0.60695  1.0000
  C   C51       1.0  0.94637  0.45724  0.48918  1.0000
  C   C52       1.0  0.94638  0.55339  0.39304  1.0000
  C   C53       1.0  0.51607  0.55337  0.39305  1.0000
  C   C54       1.0  0.61222  0.45723  0.48921  1.0000
  C   C55       1.0  0.49445  0.45724  0.60696  1.0000
  C   C56       1.0  0.39831  0.55339  0.51080  1.0000
  H   H1        1.0  0.69931  0.79165  0.10683  1.0000
  H   H2        1.0  0.48568  0.41810  0.89317  1.0000
  H   H3        1.0  0.52487  0.79166  0.10682  1.0000
  H   H4        1.0  0.31123  0.21894  0.89320  1.0000
  Cl  Cl1       1.0  0.48090  0.27110  0.86713  1.0000
  Cl  Cl2       1.0  0.12301  0.72235  0.88221  1.0000
  Cl  Cl3       1.0  0.26387  0.61379  0.86711  1.0000
  H   H5        1.0  0.22984  0.59254  0.77540  1.0000
  Cl  Cl4       1.0  0.25592  0.39679  0.74933  1.0000
  Cl  Cl5       1.0  0.75460  0.50662  0.14083  1.0000
  Cl  Cl6       1.0  0.75459  0.50662  0.35785  1.0000
  Cl  Cl7       1.0  0.13815  0.39679  0.74141  1.0000
  H   H6        1.0  0.31121  0.59254  0.51960  1.0000
  Cl  Cl8       1.0  0.12304  0.28825  0.88226  1.0000
  Cl  Cl9       1.0  0.52965  0.61385  0.13289  1.0000
  Cl  Cl10      1.0  0.87239  0.39677  0.13293  1.0000
  Cl  Cl11      1.0  0.13819  0.73949  0.52440  1.0000
  H   H7        1.0  0.89842  0.41810  0.48039  1.0000
  Cl  Cl12      1.0  0.87239  0.61381  0.13292  1.0000
  H   H8        1.0  0.88749  0.24084  0.55667  1.0000
  Cl  Cl13      1.0  0.88752  0.24081  0.16522  1.0000
  Cl  Cl14      1.0  0.13819  0.61378  0.52441  1.0000
  Cl  Cl15      1.0  0.87235  0.61384  0.25857  1.0000
  H   H9        1.0  0.69930  0.41809  0.48040  1.0000
  Cl  Cl16      1.0  0.52967  0.61379  0.25860  1.0000
  H   H10       1.0  0.48566  0.41810  0.69405  1.0000
  H   H11       1.0  0.11211  0.79165  0.69405  1.0000
  H   H12       1.0  0.69931  0.41812  0.10680  1.0000
