data_image0
_chemical_formula_structural       Zn4O13C60H2CNCNH5CNCNH4CNCNCNHCNCNCNCNCNCNCNCNH3CNH2CN
_chemical_formula_sum              "Zn4 O13 C77 H17 N17"
_cell_length_a       21.3954
_cell_length_b       17.6377
_cell_length_c       21.3954
_cell_angle_alpha    78.7586
_cell_angle_beta     89.9764
_cell_angle_gamma    101.215

_space_group_name_H-M_alt    "P 1"
_space_group_IT_number       1

loop_
  _space_group_symop_operation_xyz
  'x, y, z'

loop_
  _atom_site_type_symbol
  _atom_site_label
  _atom_site_symmetry_multiplicity
  _atom_site_fract_x
  _atom_site_fract_y
  _atom_site_fract_z
  _atom_site_occupancy
  Zn  Zn1       1.0  0.90747  0.68514  0.69624  1.0000
  Zn  Zn2       1.0  0.88621  0.55292  0.82222  1.0000
  Zn  Zn3       1.0  0.80268  0.68512  0.80100  1.0000
  Zn  Zn4       1.0  0.78150  0.55297  0.71747  1.0000
  O   O1        1.0  0.84447  0.61904  0.75923  1.0000
  O   O2        1.0  0.99232  0.66758  0.71294  1.0000
  O   O3        1.0  0.87510  0.57043  0.90709  1.0000
  O   O4        1.0  0.83434  0.79576  0.76934  1.0000
  O   O5        1.0  0.97671  0.57044  0.80550  1.0000
  O   O6        1.0  0.91133  0.79577  0.69237  1.0000
  O   O7        1.0  0.81373  0.66756  0.89150  1.0000
  O   O8        1.0  0.71220  0.66761  0.78993  1.0000
  O   O9        1.0  0.79824  0.57053  0.62698  1.0000
  O   O10       1.0  0.69664  0.57052  0.72856  1.0000
  O   O11       1.0  0.89079  0.66763  0.61137  1.0000
  O   O12       1.0  0.85456  0.44229  0.82609  1.0000
  O   O13       1.0  0.77763  0.44233  0.74914  1.0000
  C   C1        1.0  0.68168  0.61907  0.75925  1.0000
  C   C2        1.0  0.61204  0.61906  0.75924  1.0000
  C   C3        1.0  0.11835  0.66950  0.71098  1.0000
  C   C4        1.0  0.18379  0.66950  0.71098  1.0000
  C   C5        1.0  0.20839  0.61901  0.75923  1.0000
  C   C6        1.0  0.16756  0.56850  0.80746  1.0000
  C   C7        1.0  0.10212  0.56849  0.80746  1.0000
  C   C8        1.0  0.31105  0.61288  0.81668  1.0000
  C   C9        1.0  0.37649  0.61290  0.81668  1.0000
  C   C10       1.0  0.41022  0.61904  0.75924  1.0000
  C   C11       1.0  0.37851  0.62519  0.70179  1.0000
  C   C12       1.0  0.31308  0.62518  0.70178  1.0000
  C   C13       1.0  0.27935  0.61902  0.75923  1.0000
  C   C14       1.0  0.52200  0.66955  0.71100  1.0000
  C   C15       1.0  0.58744  0.66955  0.71100  1.0000
  C   C16       1.0  0.57121  0.56856  0.80748  1.0000
  C   C17       1.0  0.50577  0.56855  0.80748  1.0000
  C   C18       1.0  0.48117  0.61905  0.75924  1.0000
  C   C19       1.0  0.81151  0.41362  0.79221  1.0000
  C   C20       1.0  0.79747  0.32575  0.80629  1.0000
  C   C21       1.0  0.95154  0.03705  0.65204  1.0000
  C   C22       1.0  0.93832  0.95447  0.66528  1.0000
  C   C23       1.0  0.85821  0.95436  0.74551  1.0000
  C   C24       1.0  0.87142  0.03693  0.73227  1.0000
  C   C25       1.0  0.91809  0.07827  0.68554  1.0000
  C   C26       1.0  0.83797  0.07816  0.76577  1.0000
  C   C27       1.0  0.85118  0.16072  0.75253  1.0000
  C   C28       1.0  0.89783  0.20207  0.70580  1.0000
  C   C29       1.0  0.93129  0.16084  0.67230  1.0000
  C   C30       1.0  0.79130  0.03682  0.81251  1.0000
  C   C31       1.0  0.75785  0.07804  0.84600  1.0000
  C   C32       1.0  0.77106  0.16061  0.83277  1.0000
  C   C33       1.0  0.81772  0.20195  0.78603  1.0000
  C   C34       1.0  0.73760  0.20184  0.86627  1.0000
  C   C35       1.0  0.75081  0.28441  0.85303  1.0000
  C   C36       1.0  0.83092  0.28452  0.77279  1.0000
  C   C37       1.0  0.00788  0.61901  0.75922  1.0000
  C   C38       1.0  0.07752  0.61899  0.75922  1.0000
  C   C39       1.0  0.84452  0.61909  0.59580  1.0000
  C   C40       1.0  0.84455  0.61911  0.52616  1.0000
  C   C41       1.0  0.87757  0.82525  0.72612  1.0000
  C   C42       1.0  0.89167  0.91313  0.71201  1.0000
  C   C43       1.0  0.81260  0.66969  0.48534  1.0000
  C   C44       1.0  0.81260  0.66970  0.41990  1.0000
  C   C45       1.0  0.84456  0.61915  0.39529  1.0000
  C   C46       1.0  0.87650  0.56856  0.43612  1.0000
  C   C47       1.0  0.87650  0.56854  0.50155  1.0000
  C   C48       1.0  0.90002  0.61292  0.29260  1.0000
  C   C49       1.0  0.90002  0.61295  0.22716  1.0000
  C   C50       1.0  0.84458  0.61920  0.19346  1.0000
  C   C51       1.0  0.78912  0.62544  0.22519  1.0000
  C   C52       1.0  0.78912  0.62542  0.29063  1.0000
  C   C53       1.0  0.84457  0.61916  0.32433  1.0000
  C   C54       1.0  0.81263  0.66980  0.08168  1.0000
  C   C55       1.0  0.81263  0.66981  0.01624  1.0000
  C   C56       1.0  0.87654  0.56866  0.03246  1.0000
  C   C57       1.0  0.87653  0.56865  0.09789  1.0000
  C   C58       1.0  0.84458  0.61922  0.12250  1.0000
  C   C59       1.0  0.84445  0.61905  0.92202  1.0000
  C   C60       1.0  0.84459  0.61925  0.99163  1.0000
  H   H1        1.0  0.28726  0.63018  0.65501  1.0000
  H   H2        1.0  0.90858  0.26930  0.69502  1.0000
  C   C61       1.0  0.77749  0.72545  0.97134  1.0000
  N   N1        1.0  0.75102  0.76737  0.93751  1.0000
  C   C62       1.0  0.97513  0.90913  0.62843  1.0000
  N   N2        1.0  0.00285  0.87498  0.60067  1.0000
  H   H3        1.0  0.18759  0.52739  0.84674  1.0000
  H   H4        1.0  0.94518  0.60787  0.20132  1.0000
  H   H5        1.0  0.40598  0.63019  0.65501  1.0000
  H   H6        1.0  0.90252  0.52739  0.41607  1.0000
  H   H7        1.0  0.78658  0.71087  0.50537  1.0000
  C   C63       1.0  0.00287  0.08252  0.60062  1.0000
  N   N3        1.0  0.04153  0.11678  0.56190  1.0000
  C   C64       1.0  0.63235  0.72512  0.65794  1.0000
  N   N4        1.0  0.66618  0.76697  0.61797  1.0000
  H   H8        1.0  0.74397  0.63050  0.31647  1.0000
  H   H9        1.0  0.90255  0.52746  0.13113  1.0000
  H   H10       1.0  0.74398  0.63054  0.19775  1.0000
  H   H11       1.0  0.50197  0.71068  0.67172  1.0000
  C   C65       1.0  0.91173  0.51309  0.00538  1.0000
  N   N5        1.0  0.93824  0.47123  0.98498  1.0000
  C   C66       1.0  0.71401  0.32976  0.88988  1.0000
  N   N6        1.0  0.68630  0.36391  0.91765  1.0000
  C   C67       1.0  0.88225  0.33000  0.72138  1.0000
  N   N7        1.0  0.92091  0.36425  0.68265  1.0000
  H   H12       1.0  0.96929  0.19450  0.63424  1.0000
  C   C68       1.0  0.77748  0.72542  0.10875  1.0000
  N   N8        1.0  0.75100  0.76731  0.12914  1.0000
  C   C69       1.0  0.96101  0.60604  0.32967  1.0000
  N   N9        1.0  0.00696  0.60086  0.35759  1.0000
  C   C70       1.0  0.91166  0.51291  0.54646  1.0000
  N   N10       1.0  0.93814  0.47102  0.58028  1.0000
  C   C71       1.0  0.68631  0.15636  0.91771  1.0000
  N   N11       1.0  0.64768  0.12210  0.95647  1.0000
  C   C72       1.0  0.09130  0.72505  0.65791  1.0000
  N   N12       1.0  0.07092  0.76689  0.61794  1.0000
  C   C73       1.0  0.80693  0.90887  0.79696  1.0000
  N   N13       1.0  0.76831  0.87462  0.83573  1.0000
  C   C74       1.0  0.70656  0.03256  0.89745  1.0000
  N   N14       1.0  0.66795  0.99830  0.93622  1.0000
  C   C75       1.0  0.59827  0.51301  0.86055  1.0000
  N   N15       1.0  0.61866  0.47118  0.90052  1.0000
  H   H13       1.0  0.78055  0.96958  0.82328  1.0000
  H   H14       1.0  0.78659  0.71090  0.38666  1.0000
  H   H15       1.0  0.47253  0.52743  0.84676  1.0000
  C   C76       1.0  0.22871  0.72507  0.65792  1.0000
  N   N16       1.0  0.26254  0.76692  0.61796  1.0000
  H   H16       1.0  0.06888  0.52736  0.84674  1.0000
  H   H17       1.0  0.28359  0.60787  0.86346  1.0000
  C   C77       1.0  0.41136  0.60614  0.87988  1.0000
  N   N17       1.0  0.43762  0.60105  0.92748  1.0000
