data_image0
_chemical_formula_structural       Zn4O13C32H4OCH2C2H5OCH2C2H5OCH2C2H8OCH2C2H6
_chemical_formula_sum              "Zn4 O17 C44 H36"
_cell_length_a       14.9086
_cell_length_b       16.6255
_cell_length_c       14.9083
_cell_angle_alpha    93.2641
_cell_angle_beta     90.1751
_cell_angle_gamma    86.7185

_space_group_name_H-M_alt    "P 1"
_space_group_IT_number       1

loop_
  _space_group_symop_operation_xyz
  'x, y, z'

loop_
  _atom_site_type_symbol
  _atom_site_label
  _atom_site_symmetry_multiplicity
  _atom_site_fract_x
  _atom_site_fract_y
  _atom_site_fract_z
  _atom_site_occupancy
  Zn  Zn1       1.0  0.34528  0.57922  0.41244  1.0000
  Zn  Zn2       1.0  0.35386  0.45169  0.56281  1.0000
  Zn  Zn3       1.0  0.20360  0.59471  0.57144  1.0000
  Zn  Zn4       1.0  0.19488  0.45265  0.42116  1.0000
  O   O1        1.0  0.27440  0.51957  0.49196  1.0000
  O   O2        1.0  0.47224  0.55542  0.42513  1.0000
  O   O3        1.0  0.34116  0.47674  0.68978  1.0000
  O   O4        1.0  0.22245  0.70548  0.55032  1.0000
  O   O5        1.0  0.47854  0.46172  0.53560  1.0000
  O   O6        1.0  0.32654  0.69410  0.43350  1.0000
  O   O7        1.0  0.23076  0.58182  0.69612  1.0000
  O   O8        1.0  0.07662  0.58275  0.55877  1.0000
  O   O9        1.0  0.20760  0.46336  0.29418  1.0000
  O   O10       1.0  0.07021  0.47837  0.44836  1.0000
  O   O11       1.0  0.31809  0.55635  0.28778  1.0000
  O   O12       1.0  0.33271  0.33899  0.54405  1.0000
  O   O13       1.0  0.21591  0.33969  0.43998  1.0000
  C   C1        1.0  0.04079  0.53234  0.50544  1.0000
  C   C2        1.0  0.94085  0.53779  0.51119  1.0000
  C   C3        1.0  0.74643  0.43919  0.40717  1.0000
  C   C4        1.0  0.65253  0.44430  0.41256  1.0000
  C   C5        1.0  0.65913  0.55313  0.52737  1.0000
  C   C6        1.0  0.75303  0.54802  0.52198  1.0000
  C   C7        1.0  0.79668  0.49104  0.46187  1.0000
  C   C8        1.0  0.89059  0.48593  0.45648  1.0000
  C   C9        1.0  0.89719  0.59476  0.57129  1.0000
  C   C10       1.0  0.80328  0.59988  0.57668  1.0000
  C   C11       1.0  0.27432  0.31008  0.49201  1.0000
  C   C12       1.0  0.27437  0.22046  0.49199  1.0000
  C   C13       1.0  0.27452  0.89227  0.49189  1.0000
  C   C14       1.0  0.27447  0.98358  0.49191  1.0000
  C   C15       1.0  0.27444  0.05636  0.49194  1.0000
  C   C16       1.0  0.27440  0.14768  0.49197  1.0000
  C   C17       1.0  0.50893  0.50674  0.47843  1.0000
  C   C18       1.0  0.60887  0.50127  0.47266  1.0000
  C   C19       1.0  0.26092  0.50823  0.25744  1.0000
  C   C20       1.0  0.25517  0.50340  0.15750  1.0000
  C   C21       1.0  0.27451  0.72987  0.49190  1.0000
  C   C22       1.0  0.27456  0.81948  0.49187  1.0000
  C   C23       1.0  0.35943  0.59118  0.96303  1.0000
  C   C24       1.0  0.35403  0.58665  0.86913  1.0000
  C   C25       1.0  0.23898  0.48980  0.87579  1.0000
  C   C26       1.0  0.24437  0.49434  0.96969  1.0000
  C   C27       1.0  0.30460  0.54503  0.01331  1.0000
  C   C28       1.0  0.31000  0.54956  0.10721  1.0000
  C   C29       1.0  0.19494  0.45272  0.11387  1.0000
  C   C30       1.0  0.18955  0.44818  0.01997  1.0000
  C   C31       1.0  0.28789  0.53091  0.72557  1.0000
  C   C32       1.0  0.29381  0.53596  0.82550  1.0000
  H   H1        1.0  0.78198  0.39279  0.35823  1.0000
  H   H2        1.0  0.35905  0.59083  0.14273  1.0000
  H   H3        1.0  0.61162  0.40207  0.36801  1.0000
  H   H4        1.0  0.92613  0.43953  0.40755  1.0000
  O   O14       1.0  0.76102  0.65529  0.63508  1.0000
  C   C33       1.0  0.82551  0.69995  0.68223  1.0000
  H   H5        1.0  0.89034  0.69727  0.64155  1.0000
  H   H6        1.0  0.83940  0.67327  0.75000  1.0000
  C   C34       1.0  0.70999  0.79169  0.74710  1.0000
  C   C35       1.0  0.78961  0.78840  0.69713  1.0000
  H   H7        1.0  0.68785  0.84625  0.75630  1.0000
  H   H8        1.0  0.66654  0.76160  0.71534  1.0000
  H   H9        1.0  0.72158  0.76945  0.80357  1.0000
  H   H10       1.0  0.77802  0.81063  0.64066  1.0000
  H   H11       1.0  0.83306  0.81849  0.72889  1.0000
  O   O15       1.0  0.94610  0.64503  0.62447  1.0000
  C   C36       1.0  0.00371  0.59905  0.67953  1.0000
  H   H12       1.0  0.01596  0.53561  0.64713  1.0000
  H   H13       1.0  0.97133  0.59547  0.74826  1.0000
  C   C37       1.0  0.07881  0.71728  0.73041  1.0000
  C   C38       1.0  0.09386  0.63936  0.69061  1.0000
  H   H14       1.0  0.13442  0.74214  0.73724  1.0000
  H   H15       1.0  0.03999  0.74825  0.69332  1.0000
  H   H16       1.0  0.05183  0.71429  0.78768  1.0000
  H   H17       1.0  0.12084  0.64236  0.63333  1.0000
  H   H18       1.0  0.13269  0.60839  0.72769  1.0000
  O   O16       1.0  0.61657  0.60844  0.58570  1.0000
  C   C39       1.0  0.52292  0.60186  0.57869  1.0000
  H   H19       1.0  0.50839  0.53886  0.55014  1.0000
  H   H20       1.0  0.49356  0.64872  0.53220  1.0000
  C   C40       1.0  0.49772  0.69382  0.70747  1.0000
  C   C41       1.0  0.47988  0.61645  0.67241  1.0000
  H   H21       1.0  0.47117  0.70283  0.76528  1.0000
  H   H22       1.0  0.56082  0.69826  0.71219  1.0000
  H   H23       1.0  0.47326  0.73287  0.66872  1.0000
  H   H24       1.0  0.50435  0.57740  0.71115  1.0000
  H   H25       1.0  0.41678  0.61201  0.66770  1.0000
  H   H26       1.0  0.40847  0.63245  0.99855  1.0000
  H   H27       1.0  0.39868  0.62423  0.82820  1.0000
  H   H28       1.0  0.18994  0.44853  0.84026  1.0000
  O   O17       1.0  0.13117  0.39885  0.97755  1.0000
  C   C42       1.0  0.17922  0.34137  0.92027  1.0000
  H   H29       1.0  0.25166  0.33389  0.94449  1.0000
  H   H30       1.0  0.17823  0.36269  0.84892  1.0000
  C   C43       1.0  0.04620  0.26907  0.89164  1.0000
  C   C44       1.0  0.13517  0.25988  0.92139  1.0000
  H   H31       1.0  0.01903  0.21880  0.89232  1.0000
  H   H32       1.0  0.01383  0.30780  0.93023  1.0000
  H   H33       1.0  0.04539  0.28684  0.83218  1.0000
  H   H34       1.0  0.13598  0.24211  0.98085  1.0000
  H   H35       1.0  0.16754  0.22114  0.88281  1.0000
  H   H36       1.0  0.15030  0.41513  0.15482  1.0000
