data_image0
_chemical_formula_structural       Zn4O13C18HN2H4N2HN2H2
_chemical_formula_sum              "Zn4 O13 C18 H8 N6"
_cell_length_a       13.0328
_cell_length_b       13.8974
_cell_length_c       13.0323
_cell_angle_alpha    97.1491
_cell_angle_beta     90.887
_cell_angle_gamma    82.8244

_space_group_name_H-M_alt    "P 1"
_space_group_IT_number       1

loop_
  _space_group_symop_operation_xyz
  'x, y, z'

loop_
  _atom_site_type_symbol
  _atom_site_label
  _atom_site_symmetry_multiplicity
  _atom_site_fract_x
  _atom_site_fract_y
  _atom_site_fract_z
  _atom_site_occupancy
  Zn  Zn1       1.0  0.49846  0.34858  0.21917  1.0000
  Zn  Zn2       1.0  0.52020  0.20486  0.39115  1.0000
  Zn  Zn3       1.0  0.34832  0.38887  0.41293  1.0000
  Zn  Zn4       1.0  0.32644  0.21008  0.24102  1.0000
  O   O1        1.0  0.42335  0.28810  0.31607  1.0000
  O   O2        1.0  0.64526  0.31047  0.22372  1.0000
  O   O3        1.0  0.51565  0.24396  0.53795  1.0000
  O   O4        1.0  0.36829  0.51850  0.38719  1.0000
  O   O5        1.0  0.66123  0.20488  0.35008  1.0000
  O   O6        1.0  0.47860  0.48889  0.24484  1.0000
  O   O7        1.0  0.38937  0.37915  0.55396  1.0000
  O   O8        1.0  0.20150  0.38420  0.40838  1.0000
  O   O9        1.0  0.33101  0.21377  0.09421  1.0000
  O   O10       1.0  0.18543  0.25284  0.28209  1.0000
  O   O11       1.0  0.45739  0.31553  0.07815  1.0000
  O   O12       1.0  0.49444  0.07059  0.37127  1.0000
  O   O13       1.0  0.35209  0.07442  0.26097  1.0000
  C   C1        1.0  0.15614  0.32346  0.34997  1.0000
  C   C2        1.0  0.04183  0.33856  0.36445  1.0000
  C   C3        1.0  0.98295  0.28022  0.30851  1.0000
  C   C4        1.0  0.86480  0.29583  0.32347  1.0000
  C   C5        1.0  0.42327  0.03750  0.31610  1.0000
  C   C6        1.0  0.42333  0.93027  0.31607  1.0000
  C   C7        1.0  0.42338  0.84320  0.31604  1.0000
  C   C8        1.0  0.42344  0.73395  0.31600  1.0000
  C   C9        1.0  0.69161  0.25260  0.28203  1.0000
  C   C10       1.0  0.80592  0.23747  0.26753  1.0000
  C   C11       1.0  0.38933  0.26074  0.04782  1.0000
  C   C12       1.0  0.37484  0.24907  0.93351  1.0000
  C   C13       1.0  0.42346  0.53967  0.31601  1.0000
  C   C14       1.0  0.42351  0.64688  0.31598  1.0000
  C   C15       1.0  0.43090  0.29422  0.87460  1.0000
  C   C16       1.0  0.41592  0.28217  0.75646  1.0000
  C   C17       1.0  0.45730  0.31542  0.58326  1.0000
  C   C18       1.0  0.47200  0.32732  0.69755  1.0000
  H   H1        1.0  0.84298  0.17596  0.20855  1.0000
  N   N1        1.0  0.30069  0.18941  0.88706  1.0000
  N   N2        1.0  0.22762  0.22596  0.83541  1.0000
  H   H2        1.0  0.17525  0.18382  0.80260  1.0000
  H   H3        1.0  0.02001  0.21871  0.24954  1.0000
  H   H4        1.0  0.82774  0.35734  0.38245  1.0000
  H   H5        1.0  0.53109  0.37491  0.73458  1.0000
  N   N3        1.0  0.99532  0.41573  0.43842  1.0000
  N   N4        1.0  0.89941  0.42830  0.45047  1.0000
  H   H6        1.0  0.86657  0.48280  0.50270  1.0000
  N   N5        1.0  0.50503  0.35391  0.92107  1.0000
  N   N6        1.0  0.51709  0.36362  0.01698  1.0000
  H   H7        1.0  0.56944  0.40578  0.04979  1.0000
  H   H8        1.0  0.35682  0.23460  0.71943  1.0000
