data_image0
_chemical_formula_structural       Zn8O26C60H2O2C2H4C4H12O2C2H4C4H12O2C2H4C4H10
_chemical_formula_sum              "Zn8 O32 C78 H48"
_cell_length_a       16.6255
_cell_length_b       18.0506
_cell_length_c       16.6255
_cell_angle_alpha    89.9752
_cell_angle_beta     89.9794
_cell_angle_gamma    90.0293

_space_group_name_H-M_alt    "P 1"
_space_group_IT_number       1

loop_
  _space_group_symop_operation_xyz
  'x, y, z'

loop_
  _atom_site_type_symbol
  _atom_site_label
  _atom_site_symmetry_multiplicity
  _atom_site_fract_x
  _atom_site_fract_y
  _atom_site_fract_z
  _atom_site_occupancy
  Zn  Zn1       1.0  0.23265  0.70436  0.54407  1.0000
  Zn  Zn2       1.0  0.73265  0.20436  0.04407  1.0000
  Zn  Zn3       1.0  0.23254  0.58017  0.67890  1.0000
  Zn  Zn4       1.0  0.73254  0.08016  0.17890  1.0000
  Zn  Zn5       1.0  0.09781  0.70433  0.67889  1.0000
  Zn  Zn6       1.0  0.59781  0.20433  0.17889  1.0000
  Zn  Zn7       1.0  0.09777  0.58021  0.54411  1.0000
  Zn  Zn8       1.0  0.59777  0.08021  0.04411  1.0000
  O   O1        1.0  0.16519  0.64227  0.61149  1.0000
  O   O2        1.0  0.66519  0.14227  0.11149  1.0000
  O   O3        1.0  0.34547  0.68788  0.56194  1.0000
  O   O4        1.0  0.84547  0.18788  0.06194  1.0000
  O   O5        1.0  0.21464  0.59661  0.79173  1.0000
  O   O6        1.0  0.71464  0.09661  0.29173  1.0000
  O   O7        1.0  0.11576  0.80826  0.66099  1.0000
  O   O8        1.0  0.61576  0.30826  0.16099  1.0000
  O   O9        1.0  0.34539  0.59663  0.66100  1.0000
  O   O10       1.0  0.84539  0.09663  0.16100  1.0000
  O   O11       1.0  0.21483  0.80828  0.56194  1.0000
  O   O12       1.0  0.71483  0.30828  0.06194  1.0000
  O   O13       1.0  0.11565  0.68783  0.79172  1.0000
  O   O14       1.0  0.61565  0.18783  0.29172  1.0000
  O   O15       1.0  0.98497  0.68787  0.66102  1.0000
  O   O16       1.0  0.48497  0.18787  0.16102  1.0000
  O   O17       1.0  0.11569  0.59671  0.43127  1.0000
  O   O18       1.0  0.61569  0.09671  0.93127  1.0000
  O   O19       1.0  0.98494  0.59668  0.56200  1.0000
  O   O20       1.0  0.48494  0.09668  0.06200  1.0000
  O   O21       1.0  0.21478  0.68792  0.43124  1.0000
  O   O22       1.0  0.71478  0.18792  0.93124  1.0000
  O   O23       1.0  0.21460  0.47625  0.66103  1.0000
  O   O24       1.0  0.71460  0.97625  0.16103  1.0000
  O   O25       1.0  0.11558  0.47628  0.56200  1.0000
  O   O26       1.0  0.61558  0.97628  0.06200  1.0000
  C   C1        1.0  0.95570  0.64228  0.61151  1.0000
  C   C2        1.0  0.45570  0.14228  0.11151  1.0000
  C   C3        1.0  0.86608  0.64226  0.61150  1.0000
  C   C4        1.0  0.36608  0.14227  0.11150  1.0000
  C   C5        1.0  0.53790  0.64226  0.61147  1.0000
  C   C6        1.0  0.03790  0.14226  0.11147  1.0000
  C   C7        1.0  0.62921  0.64226  0.61148  1.0000
  C   C8        1.0  0.12921  0.14226  0.11148  1.0000
  C   C9        1.0  0.70199  0.64226  0.61149  1.0000
  C   C10       1.0  0.20199  0.14226  0.11149  1.0000
  C   C11       1.0  0.79330  0.64227  0.61150  1.0000
  C   C12       1.0  0.29330  0.14227  0.11150  1.0000
  C   C13       1.0  0.16509  0.44932  0.61150  1.0000
  C   C14       1.0  0.66509  0.94932  0.11150  1.0000
  C   C15       1.0  0.16513  0.36677  0.61148  1.0000
  C   C16       1.0  0.66513  0.86677  0.11148  1.0000
  C   C17       1.0  0.11133  0.16731  0.55765  1.0000
  C   C18       1.0  0.61133  0.66731  0.05765  1.0000
  C   C19       1.0  0.09168  0.11787  0.63123  1.0000
  C   C20       1.0  0.59168  0.61787  0.13123  1.0000
  C   C21       1.0  0.16521  0.21564  0.61147  1.0000
  C   C22       1.0  0.66521  0.71564  0.11147  1.0000
  C   C23       1.0  0.18490  0.11800  0.53789  1.0000
  C   C24       1.0  0.68490  0.61800  0.03789  1.0000
  C   C25       1.0  0.16528  0.06965  0.61146  1.0000
  C   C26       1.0  0.66528  0.56965  0.11146  1.0000
  C   C27       1.0  0.14551  0.16729  0.68509  1.0000
  C   C28       1.0  0.64551  0.66729  0.18509  1.0000
  C   C29       1.0  0.23877  0.16742  0.59170  1.0000
  C   C30       1.0  0.73877  0.66742  0.09170  1.0000
  C   C31       1.0  0.21914  0.11800  0.66533  1.0000
  C   C32       1.0  0.71914  0.61800  0.16533  1.0000
  C   C33       1.0  0.16516  0.29974  0.61148  1.0000
  C   C34       1.0  0.66516  0.79974  0.11148  1.0000
  C   C35       1.0  0.16532  0.98556  0.61146  1.0000
  C   C36       1.0  0.66532  0.48556  0.11146  1.0000
  C   C37       1.0  0.37550  0.64226  0.61147  1.0000
  C   C38       1.0  0.87550  0.14226  0.11147  1.0000
  C   C39       1.0  0.46512  0.64225  0.61146  1.0000
  C   C40       1.0  0.96512  0.14225  0.11146  1.0000
  C   C41       1.0  0.16524  0.64232  0.40118  1.0000
  C   C42       1.0  0.66524  0.14232  0.90118  1.0000
  C   C43       1.0  0.16527  0.64235  0.31156  1.0000
  C   C44       1.0  0.66527  0.14235  0.81156  1.0000
  C   C45       1.0  0.16531  0.83597  0.61146  1.0000
  C   C46       1.0  0.66531  0.33597  0.11146  1.0000
  C   C47       1.0  0.16536  0.91852  0.61145  1.0000
  C   C48       1.0  0.66536  0.41852  0.11145  1.0000
  C   C49       1.0  0.16530  0.64243  0.98339  1.0000
  C   C50       1.0  0.66530  0.14243  0.48338  1.0000
  C   C51       1.0  0.16529  0.64240  0.07469  1.0000
  C   C52       1.0  0.66529  0.14240  0.57469  1.0000
  C   C53       1.0  0.16528  0.64239  0.14747  1.0000
  C   C54       1.0  0.66528  0.14239  0.64747  1.0000
  C   C55       1.0  0.16527  0.64236  0.23878  1.0000
  C   C56       1.0  0.66527  0.14236  0.73878  1.0000
  C   C57       1.0  0.16518  0.64227  0.82098  1.0000
  C   C58       1.0  0.66518  0.14227  0.32098  1.0000
  C   C59       1.0  0.16532  0.64245  0.91060  1.0000
  C   C60       1.0  0.66532  0.14245  0.41060  1.0000
  H   H1        1.0  0.06571  0.18896  0.51220  1.0000
  H   H2        1.0  0.56571  0.68896  0.01220  1.0000
  O   O27       1.0  0.31299  0.19332  0.57182  1.0000
  O   O28       1.0  0.81299  0.69332  0.07182  1.0000
  C   C61       1.0  0.36991  0.16712  0.62786  1.0000
  C   C62       1.0  0.86991  0.66712  0.12785  1.0000
  H   H3        1.0  0.34605  0.11470  0.65780  1.0000
  H   H4        1.0  0.84605  0.61470  0.15780  1.0000
  H   H5        1.0  0.38099  0.21132  0.67555  1.0000
  H   H6        1.0  0.88099  0.71132  0.17555  1.0000
  C   C63       1.0  0.47866  0.21399  0.54741  1.0000
  C   C64       1.0  0.97866  0.71399  0.04741  1.0000
  C   C65       1.0  0.44936  0.14961  0.58418  1.0000
  C   C66       1.0  0.94936  0.64961  0.08418  1.0000
  H   H7        1.0  0.52767  0.20319  0.52048  1.0000
  H   H8        1.0  0.02767  0.70319  0.02048  1.0000
  H   H9        1.0  0.44031  0.23165  0.50967  1.0000
  H   H10       1.0  0.94031  0.73165  0.00966  1.0000
  H   H11       1.0  0.48789  0.25082  0.58717  1.0000
  H   H12       1.0  0.98789  0.75082  0.08717  1.0000
  H   H13       1.0  0.44012  0.11279  0.54443  1.0000
  H   H14       1.0  0.94012  0.61279  0.04443  1.0000
  H   H15       1.0  0.48771  0.13195  0.62193  1.0000
  H   H16       1.0  0.98771  0.63194  0.12193  1.0000
  H   H17       1.0  0.02950  0.09608  0.64793  1.0000
  H   H18       1.0  0.52950  0.59608  0.14793  1.0000
  O   O29       1.0  0.27351  0.09220  0.71962  1.0000
  O   O30       1.0  0.77351  0.59220  0.21962  1.0000
  C   C67       1.0  0.27340  0.01410  0.71857  1.0000
  C   C68       1.0  0.77340  0.51410  0.21857  1.0000
  H   H19       1.0  0.24940  0.99378  0.65826  1.0000
  H   H20       1.0  0.74940  0.49378  0.15826  1.0000
  H   H21       1.0  0.23337  0.99247  0.76908  1.0000
  H   H22       1.0  0.73337  0.49247  0.26908  1.0000
  C   C69       1.0  0.38927  0.01041  0.80473  1.0000
  C   C70       1.0  0.88927  0.51041  0.30473  1.0000
  C   C71       1.0  0.35980  0.98545  0.73065  1.0000
  C   C72       1.0  0.85980  0.48545  0.23065  1.0000
  H   H23       1.0  0.44256  0.99273  0.81218  1.0000
  H   H24       1.0  0.94256  0.49273  0.31218  1.0000
  H   H25       1.0  0.38935  0.06303  0.80544  1.0000
  H   H26       1.0  0.88935  0.56303  0.30544  1.0000
  H   H27       1.0  0.35590  0.99238  0.84681  1.0000
  H   H28       1.0  0.85590  0.49238  0.34681  1.0000
  H   H29       1.0  0.39316  0.00348  0.68857  1.0000
  H   H30       1.0  0.89316  0.50348  0.18857  1.0000
  H   H31       1.0  0.35973  0.93283  0.72993  1.0000
  H   H32       1.0  0.85973  0.43283  0.22993  1.0000
  H   H33       1.0  0.12881  0.18884  0.74733  1.0000
  H   H34       1.0  0.62881  0.68884  0.24733  1.0000
  O   O31       1.0  0.20465  0.09226  0.46360  1.0000
  O   O32       1.0  0.70465  0.59226  0.96360  1.0000
  C   C73       1.0  0.14764  0.11737  0.40706  1.0000
  C   C74       1.0  0.64764  0.61737  0.90706  1.0000
  H   H35       1.0  0.11691  0.16933  0.43099  1.0000
  H   H36       1.0  0.61691  0.66933  0.93099  1.0000
  H   H37       1.0  0.10070  0.07234  0.39655  1.0000
  H   H38       1.0  0.60070  0.57234  0.89655  1.0000
  C   C75       1.0  0.22803  0.07161  0.29780  1.0000
  C   C76       1.0  0.72803  0.57161  0.79780  1.0000
  C   C77       1.0  0.19029  0.13543  0.32718  1.0000
  C   C78       1.0  0.69029  0.63543  0.82718  1.0000
  H   H39       1.0  0.25433  0.08274  0.24852  1.0000
  H   H40       1.0  0.75433  0.58275  0.74852  1.0000
  H   H41       1.0  0.26643  0.05469  0.33588  1.0000
  H   H42       1.0  0.76643  0.55469  0.83588  1.0000
  H   H43       1.0  0.18890  0.03409  0.28904  1.0000
  H   H44       1.0  0.68890  0.53409  0.78904  1.0000
  H   H45       1.0  0.22942  0.17294  0.33594  1.0000
  H   H46       1.0  0.72942  0.67294  0.83594  1.0000
  H   H47       1.0  0.15189  0.15235  0.28909  1.0000
  H   H48       1.0  0.65189  0.65235  0.78909  1.0000
