data_image0
_chemical_formula_structural       O14Zn4O2N4C68N2O14Zn4O2N4O14Zn4O2N4O14Zn4O2N2C32H2O2H2O2H2O2H4O2H6O2H2O2H6O2H2O2H2O2H2O2H2O2H4O2H2O2H2O2H6O2H2O2H4O2H2O2H10
_chemical_formula_sum              "O100 Zn16 N16 C100 H64"
_cell_length_a       27.4356
_cell_length_b       27.4349
_cell_length_c       27.4312
_cell_angle_alpha    60.0055
_cell_angle_beta     60.0114
_cell_angle_gamma    59.993

_space_group_name_H-M_alt    "P 1"
_space_group_IT_number       1

loop_
  _space_group_symop_operation_xyz
  'x, y, z'

loop_
  _atom_site_type_symbol
  _atom_site_label
  _atom_site_symmetry_multiplicity
  _atom_site_fract_x
  _atom_site_fract_y
  _atom_site_fract_z
  _atom_site_occupancy
  O   O1        1.0  0.06744  0.28786  0.59555  1.0000
  O   O2        1.0  0.56744  0.78786  0.09555  1.0000
  O   O3        1.0  0.02536  0.44555  0.47985  1.0000
  O   O4        1.0  0.52536  0.94555  0.97985  1.0000
  O   O5        1.0  0.12521  0.34576  0.47978  1.0000
  O   O6        1.0  0.62521  0.84576  0.97978  1.0000
  O   O7        1.0  0.96759  0.38764  0.59562  1.0000
  O   O8        1.0  0.46759  0.88764  0.09562  1.0000
  O   O9        1.0  0.15833  0.37888  0.51284  1.0000
  O   O10       1.0  0.65833  0.87888  0.01283  1.0000
  O   O11       1.0  0.05848  0.47867  0.51290  1.0000
  O   O12       1.0  0.55848  0.97867  0.01290  1.0000
  O   O13       1.0  0.10056  0.32098  0.62860  1.0000
  O   O14       1.0  0.60056  0.82098  0.12861  1.0000
  Zn  Zn1       1.0  0.08478  0.40508  0.57600  1.0000
  Zn  Zn2       1.0  0.58478  0.90508  0.07600  1.0000
  Zn  Zn3       1.0  0.04114  0.36144  0.53245  1.0000
  Zn  Zn4       1.0  0.54114  0.86144  0.03245  1.0000
  O   O15       1.0  0.00071  0.42076  0.62867  1.0000
  O   O16       1.0  0.50071  0.92076  0.12867  1.0000
  N   N1        1.0  0.11456  0.43486  0.60573  1.0000
  N   N2        1.0  0.61456  0.93486  0.10573  1.0000
  N   N3        1.0  0.01136  0.33166  0.50273  1.0000
  N   N4        1.0  0.51136  0.83166  0.00273  1.0000
  C   C1        1.0  0.15639  0.47648  0.90451  1.0000
  C   C2        1.0  0.65639  0.97648  0.40451  1.0000
  C   C3        1.0  0.41342  0.47650  0.64732  1.0000
  C   C4        1.0  0.91342  0.97650  0.14732  1.0000
  C   C5        1.0  0.15625  0.47651  0.64738  1.0000
  C   C6        1.0  0.65625  0.97651  0.14738  1.0000
  C   C7        1.0  0.15624  0.73365  0.64741  1.0000
  C   C8        1.0  0.65624  0.23365  0.14741  1.0000
  C   C9        1.0  0.19764  0.60954  0.68875  1.0000
  C   C10       1.0  0.69764  0.10954  0.18875  1.0000
  C   C11       1.0  0.19765  0.51787  0.68874  1.0000
  C   C12       1.0  0.69765  0.01787  0.18874  1.0000
  C   C13       1.0  0.22058  0.54079  0.71165  1.0000
  C   C14       1.0  0.72057  0.04078  0.21165  1.0000
  C   C15       1.0  0.32055  0.55801  0.65902  1.0000
  C   C16       1.0  0.82056  0.05801  0.15902  1.0000
  C   C17       1.0  0.38305  0.53718  0.63818  1.0000
  C   C18       1.0  0.88305  0.03718  0.13818  1.0000
  C   C19       1.0  0.38307  0.43606  0.67674  1.0000
  C   C20       1.0  0.88307  0.93606  0.17674  1.0000
  C   C21       1.0  0.32057  0.45689  0.69758  1.0000
  C   C22       1.0  0.82058  0.95689  0.19758  1.0000
  C   C23       1.0  0.21270  0.64079  0.62731  1.0000
  C   C24       1.0  0.71270  0.14079  0.12731  1.0000
  C   C25       1.0  0.19185  0.70330  0.60650  1.0000
  C   C26       1.0  0.69185  0.20330  0.10650  1.0000
  C   C27       1.0  0.14087  0.70328  0.70856  1.0000
  C   C28       1.0  0.64087  0.20328  0.20856  1.0000
  C   C29       1.0  0.16172  0.64078  0.72938  1.0000
  C   C30       1.0  0.66172  0.14078  0.22938  1.0000
  C   C31       1.0  0.13620  0.53297  0.70386  1.0000
  C   C32       1.0  0.63620  0.03297  0.20386  1.0000
  C   C33       1.0  0.11536  0.51214  0.68302  1.0000
  C   C34       1.0  0.61536  0.01214  0.18302  1.0000
  C   C35       1.0  0.21741  0.46112  0.63197  1.0000
  C   C36       1.0  0.71741  0.96112  0.13197  1.0000
  C   C37       1.0  0.23825  0.48195  0.65280  1.0000
  C   C38       1.0  0.73825  0.98195  0.15280  1.0000
  C   C39       1.0  0.13626  0.53295  0.81167  1.0000
  C   C40       1.0  0.63626  0.03295  0.31167  1.0000
  C   C41       1.0  0.11546  0.51211  0.87417  1.0000
  C   C42       1.0  0.61546  0.01211  0.37417  1.0000
  C   C43       1.0  0.21754  0.46108  0.87413  1.0000
  C   C44       1.0  0.71754  0.96108  0.37413  1.0000
  C   C45       1.0  0.23833  0.48192  0.81163  1.0000
  C   C46       1.0  0.73833  0.98192  0.31163  1.0000
  C   C47       1.0  0.19769  0.51786  0.78040  1.0000
  C   C48       1.0  0.69769  0.01786  0.28040  1.0000
  C   C49       1.0  0.28932  0.51787  0.68872  1.0000
  C   C50       1.0  0.78932  0.01787  0.18872  1.0000
  C   C51       1.0  0.13270  0.45397  0.97325  1.0000
  C   C52       1.0  0.63270  0.95397  0.47325  1.0000
  C   C53       1.0  0.48216  0.45439  0.62408  1.0000
  C   C54       1.0  0.98216  0.95439  0.12407  1.0000
  C   C55       1.0  0.13252  0.45399  0.62489  1.0000
  C   C56       1.0  0.63252  0.95399  0.12489  1.0000
  C   C57       1.0  0.13292  0.80239  0.62531  1.0000
  C   C58       1.0  0.63292  0.30239  0.12531  1.0000
  C   C59       1.0  0.90178  0.31381  0.48442  1.0000
  C   C60       1.0  0.40178  0.81381  0.98442  1.0000
  C   C61       1.0  0.99356  0.31368  0.39289  1.0000
  C   C62       1.0  0.49356  0.81368  0.89289  1.0000
  C   C63       1.0  0.99338  0.22206  0.48459  1.0000
  C   C64       1.0  0.49338  0.72206  0.98459  1.0000
  C   C65       1.0  0.99339  0.31368  0.48465  1.0000
  C   C66       1.0  0.49339  0.81368  0.98465  1.0000
  C   C67       1.0  0.97053  0.29081  0.46164  1.0000
  C   C68       1.0  0.47053  0.79081  0.96164  1.0000
  N   N5        1.0  0.53841  0.43484  0.60563  1.0000
  N   N6        1.0  0.03841  0.93484  0.10563  1.0000
  O   O17       1.0  0.74265  0.42487  0.45862  1.0000
  O   O18       1.0  0.24265  0.92487  0.95862  1.0000
  O   O19       1.0  0.74282  0.30882  0.61617  1.0000
  O   O20       1.0  0.24282  0.80882  0.11617  1.0000
  O   O21       1.0  0.74276  0.30908  0.51625  1.0000
  O   O22       1.0  0.24276  0.80908  0.01625  1.0000
  O   O23       1.0  0.74271  0.42460  0.55855  1.0000
  O   O24       1.0  0.24271  0.92460  0.05855  1.0000
  O   O25       1.0  0.64347  0.34212  0.54941  1.0000
  O   O26       1.0  0.14347  0.84212  0.04940  1.0000
  O   O27       1.0  0.64354  0.34186  0.64933  1.0000
  O   O28       1.0  0.14354  0.84186  0.14933  1.0000
  O   O29       1.0  0.64336  0.45790  0.49178  1.0000
  O   O30       1.0  0.14336  0.95790  0.99178  1.0000
  Zn  Zn5       1.0  0.62768  0.40513  0.57582  1.0000
  Zn  Zn6       1.0  0.12769  0.90513  0.07582  1.0000
  Zn  Zn7       1.0  0.75850  0.36160  0.53213  1.0000
  Zn  Zn8       1.0  0.25850  0.86160  0.03213  1.0000
  O   O31       1.0  0.64343  0.45764  0.59170  1.0000
  O   O32       1.0  0.14343  0.95764  0.09170  1.0000
  N   N7        1.0  0.84777  0.33188  0.50232  1.0000
  N   N8        1.0  0.34777  0.83188  0.00232  1.0000
  N   N9        1.0  0.11454  0.85865  0.60577  1.0000
  N   N10       1.0  0.61454  0.35865  0.10577  1.0000
  O   O33       1.0  0.96760  0.06299  0.59566  1.0000
  O   O34       1.0  0.46760  0.56299  0.09566  1.0000
  O   O35       1.0  0.12516  0.06299  0.47963  1.0000
  O   O36       1.0  0.62516  0.56299  0.97963  1.0000
  O   O37       1.0  0.02522  0.06297  0.47991  1.0000
  O   O38       1.0  0.52522  0.56297  0.97991  1.0000
  O   O39       1.0  0.06754  0.06300  0.59538  1.0000
  O   O40       1.0  0.56754  0.56300  0.09538  1.0000
  O   O41       1.0  0.05834  0.96368  0.51301  1.0000
  O   O42       1.0  0.55834  0.46368  0.01301  1.0000
  O   O43       1.0  0.15828  0.96369  0.51273  1.0000
  O   O44       1.0  0.65828  0.46369  0.01273  1.0000
  O   O45       1.0  0.00073  0.96369  0.62876  1.0000
  O   O46       1.0  0.50073  0.46369  0.12876  1.0000
  Zn  Zn9       1.0  0.08476  0.94793  0.57600  1.0000
  Zn  Zn10      1.0  0.58476  0.44793  0.07600  1.0000
  Zn  Zn11      1.0  0.04112  0.07875  0.53239  1.0000
  Zn  Zn12      1.0  0.54112  0.57875  0.03239  1.0000
  O   O47       1.0  0.10066  0.96371  0.62848  1.0000
  O   O48       1.0  0.60066  0.46371  0.12848  1.0000
  N   N11       1.0  0.01133  0.16804  0.50263  1.0000
  N   N12       1.0  0.51133  0.66804  0.00263  1.0000
  N   N13       1.0  0.11478  0.43480  0.02950  1.0000
  N   N14       1.0  0.61478  0.93480  0.52950  1.0000
  O   O49       1.0  0.10468  0.28788  0.23383  1.0000
  O   O50       1.0  0.60468  0.78788  0.73383  1.0000
  O   O51       1.0  0.98867  0.44548  0.23384  1.0000
  O   O52       1.0  0.48867  0.94548  0.73384  1.0000
  O   O53       1.0  0.98893  0.34556  0.23380  1.0000
  O   O54       1.0  0.48893  0.84556  0.73380  1.0000
  O   O55       1.0  0.10441  0.38780  0.23387  1.0000
  O   O56       1.0  0.60441  0.88780  0.73387  1.0000
  O   O57       1.0  0.02203  0.37866  0.13451  1.0000
  O   O58       1.0  0.52203  0.87866  0.63451  1.0000
  O   O59       1.0  0.02176  0.47858  0.13455  1.0000
  O   O60       1.0  0.52176  0.97858  0.63455  1.0000
  O   O61       1.0  0.13777  0.32098  0.13454  1.0000
  O   O62       1.0  0.63777  0.82098  0.63454  1.0000
  Zn  Zn13      1.0  0.08502  0.40504  0.11878  1.0000
  Zn  Zn14      1.0  0.58502  0.90504  0.61878  1.0000
  Zn  Zn15      1.0  0.04142  0.36142  0.24960  1.0000
  Zn  Zn16      1.0  0.54142  0.86142  0.74960  1.0000
  O   O63       1.0  0.13751  0.42090  0.13458  1.0000
  O   O64       1.0  0.63751  0.92090  0.63458  1.0000
  N   N15       1.0  0.01166  0.33165  0.33888  1.0000
  N   N16       1.0  0.51166  0.83165  0.83888  1.0000
  C   C69       1.0  0.03797  0.48198  0.48044  1.0000
  C   C70       1.0  0.53797  0.98198  0.98043  1.0000
  C   C71       1.0  0.16162  0.35841  0.48035  1.0000
  C   C72       1.0  0.66162  0.85841  0.98035  1.0000
  C   C73       1.0  0.08794  0.28455  0.62802  1.0000
  C   C74       1.0  0.58794  0.78454  0.12802  1.0000
  C   C75       1.0  0.96429  0.40811  0.62810  1.0000
  C   C76       1.0  0.46429  0.90812  0.12810  1.0000
  C   C77       1.0  0.69320  0.30936  0.65260  1.0000
  C   C78       1.0  0.19320  0.80936  0.15260  1.0000
  C   C79       1.0  0.69312  0.30968  0.52885  1.0000
  C   C80       1.0  0.19312  0.80968  0.02886  1.0000
  C   C81       1.0  0.69298  0.45737  0.45536  1.0000
  C   C82       1.0  0.19298  0.95737  0.95536  1.0000
  C   C83       1.0  0.69306  0.45704  0.57910  1.0000
  C   C84       1.0  0.19306  0.95704  0.07909  1.0000
  C   C85       1.0  0.16152  0.01346  0.48016  1.0000
  C   C86       1.0  0.66152  0.51346  0.98016  1.0000
  C   C87       1.0  0.03781  0.01332  0.48055  1.0000
  C   C88       1.0  0.53781  0.51332  0.98055  1.0000
  C   C89       1.0  0.96432  0.01334  0.62819  1.0000
  C   C90       1.0  0.46432  0.51334  0.12819  1.0000
  C   C91       1.0  0.08808  0.01336  0.62784  1.0000
  C   C92       1.0  0.58808  0.51336  0.12784  1.0000
  C   C93       1.0  0.98924  0.48189  0.18420  1.0000
  C   C94       1.0  0.48924  0.98189  0.68420  1.0000
  C   C95       1.0  0.98957  0.35815  0.18413  1.0000
  C   C96       1.0  0.48957  0.85815  0.68412  1.0000
  C   C97       1.0  0.13720  0.28457  0.18418  1.0000
  C   C98       1.0  0.63721  0.78457  0.68418  1.0000
  C   C99       1.0  0.13687  0.40831  0.18423  1.0000
  C   C100      1.0  0.63688  0.90831  0.68423  1.0000
  H   H1        1.0  0.06543  0.52441  0.89962  1.0000
  H   H2        1.0  0.56543  0.02441  0.39962  1.0000
  O   O65       1.0  0.18494  0.42027  0.18425  1.0000
  O   O66       1.0  0.68494  0.92027  0.68425  1.0000
  H   H3        1.0  0.16786  0.46647  0.18426  1.0000
  H   H4        1.0  0.66786  0.96647  0.68426  1.0000
  O   O67       1.0  0.18545  0.22461  0.18419  1.0000
  O   O68       1.0  0.68545  0.72461  0.68419  1.0000
  H   H5        1.0  0.19639  0.21614  0.14372  1.0000
  H   H6        1.0  0.69639  0.71614  0.64372  1.0000
  O   O69       1.0  0.94154  0.34621  0.18404  1.0000
  O   O70       1.0  0.44154  0.84621  0.68404  1.0000
  H   H7        1.0  0.90096  0.38656  0.18403  1.0000
  H   H8        1.0  0.40096  0.88656  0.68403  1.0000
  H   H9        1.0  0.02899  0.52728  0.44410  1.0000
  H   H10       1.0  0.52899  0.02728  0.94410  1.0000
  O   O71       1.0  0.69315  0.26162  0.51686  1.0000
  O   O72       1.0  0.19315  0.76161  0.01686  1.0000
  H   H11       1.0  0.73364  0.22198  0.52204  1.0000
  H   H12       1.0  0.23365  0.72198  0.02204  1.0000
  H   H13       1.0  0.91907  0.01334  0.66461  1.0000
  H   H14       1.0  0.41907  0.51334  0.16461  1.0000
  H   H15       1.0  0.10316  0.56222  0.78624  1.0000
  H   H16       1.0  0.60316  0.06222  0.28624  1.0000
  O   O73       1.0  0.22159  0.34659  0.43216  1.0000
  O   O74       1.0  0.72159  0.84659  0.93216  1.0000
  H   H17       1.0  0.25083  0.30042  0.44912  1.0000
  H   H18       1.0  0.75083  0.80042  0.94912  1.0000
  O   O75       1.0  0.22138  0.01375  0.43184  1.0000
  O   O76       1.0  0.72138  0.51375  0.93184  1.0000
  H   H19       1.0  0.24235  0.97334  0.41907  1.0000
  H   H20       1.0  0.74235  0.47334  0.91907  1.0000
  H   H21       1.0  0.09693  0.23925  0.66436  1.0000
  H   H22       1.0  0.59693  0.73925  0.16436  1.0000
  H   H23       1.0  0.40852  0.38641  0.68394  1.0000
  H   H24       1.0  0.90852  0.88641  0.18394  1.0000
  O   O77       1.0  0.90433  0.41993  0.67629  1.0000
  O   O78       1.0  0.40433  0.91993  0.17629  1.0000
  H   H25       1.0  0.87509  0.46611  0.65934  1.0000
  H   H26       1.0  0.37509  0.96611  0.15934  1.0000
  O   O79       1.0  0.69326  0.26110  0.71253  1.0000
  O   O80       1.0  0.19326  0.76110  0.21253  1.0000
  H   H27       1.0  0.69327  0.27798  0.74181  1.0000
  H   H28       1.0  0.19327  0.77798  0.24181  1.0000
  O   O81       1.0  0.02581  0.01332  0.43249  1.0000
  O   O82       1.0  0.52581  0.51332  0.93249  1.0000
  H   H29       1.0  0.01475  0.97285  0.44864  1.0000
  H   H30       1.0  0.51475  0.47285  0.94864  1.0000
  O   O83       1.0  0.69292  0.50563  0.39542  1.0000
  O   O84       1.0  0.19292  0.00563  0.89542  1.0000
  H   H31       1.0  0.69292  0.48874  0.36614  1.0000
  H   H32       1.0  0.19292  0.98874  0.86614  1.0000
  O   O85       1.0  0.69304  0.50511  0.59108  1.0000
  O   O86       1.0  0.19304  0.00511  0.09108  1.0000
  H   H33       1.0  0.69308  0.48803  0.63726  1.0000
  H   H34       1.0  0.19308  0.98803  0.13726  1.0000
  H   H35       1.0  0.09714  0.01337  0.66412  1.0000
  H   H36       1.0  0.59714  0.51337  0.16412  1.0000
  O   O87       1.0  0.94098  0.54184  0.18421  1.0000
  O   O88       1.0  0.44098  0.04184  0.68421  1.0000
  H   H37       1.0  0.95700  0.57730  0.14375  1.0000
  H   H38       1.0  0.45700  0.07730  0.64375  1.0000
  O   O89       1.0  0.26139  0.42229  0.90779  1.0000
  O   O90       1.0  0.76139  0.92228  0.40779  1.0000
  H   H39       1.0  0.28988  0.44707  0.89579  1.0000
  H   H40       1.0  0.78988  0.94707  0.39579  1.0000
  O   O91       1.0  0.30460  0.46564  0.77791  1.0000
  O   O92       1.0  0.80460  0.96564  0.27791  1.0000
  H   H41       1.0  0.32936  0.43716  0.81012  1.0000
  H   H42       1.0  0.82936  0.93716  0.31012  1.0000
  H   H43       1.0  0.10313  0.56222  0.73312  1.0000
  H   H44       1.0  0.60313  0.06222  0.23312  1.0000
  H   H45       1.0  0.25048  0.43187  0.60271  1.0000
  H   H46       1.0  0.75048  0.93187  0.10271  1.0000
  O   O93       1.0  0.04909  0.52842  0.69931  1.0000
  O   O94       1.0  0.54909  0.02842  0.19931  1.0000
  H   H47       1.0  0.02864  0.51159  0.74859  1.0000
  H   H48       1.0  0.52864  0.01159  0.24859  1.0000
  O   O95       1.0  0.30452  0.46567  0.63650  1.0000
  O   O96       1.0  0.80452  0.96567  0.13650  1.0000
  H   H49       1.0  0.32926  0.43719  0.60801  1.0000
  H   H50       1.0  0.82926  0.93719  0.10801  1.0000
  H   H51       1.0  0.40848  0.56986  0.61399  1.0000
  H   H52       1.0  0.90848  0.06986  0.11399  1.0000
  O   O97       1.0  0.28688  0.41360  0.72961  1.0000
  O   O98       1.0  0.78689  0.91360  0.22961  1.0000
  H   H53       1.0  0.29891  0.38017  0.77017  1.0000
  H   H54       1.0  0.79891  0.88017  0.27017  1.0000
  O   O99       1.0  0.28684  0.62377  0.64947  1.0000
  O   O100      1.0  0.78684  0.12377  0.14947  1.0000
  H   H55       1.0  0.31907  0.64818  0.62532  1.0000
  H   H56       1.0  0.81907  0.14818  0.12532  1.0000
  H   H57       1.0  0.24195  0.61536  0.59423  1.0000
  H   H58       1.0  0.74195  0.11536  0.09423  1.0000
  H   H59       1.0  0.20411  0.72874  0.55646  1.0000
  H   H60       1.0  0.70412  0.22874  0.05646  1.0000
  H   H61       1.0  0.11163  0.72871  0.74164  1.0000
  H   H62       1.0  0.61163  0.22871  0.24164  1.0000
  H   H63       1.0  0.14944  0.61533  0.77941  1.0000
  H   H64       1.0  0.64944  0.11533  0.27941  1.0000
