data_image0
_chemical_formula_structural       Zn8O26C84H2N4H8N4H8N4H10N4H2N4H4N4H2N4H2N4H2N4H4
_chemical_formula_sum              "Zn8 O26 C84 H44 N36"
_cell_length_a       17.0774
_cell_length_b       18.0506
_cell_length_c       17.0774
_cell_angle_alpha    89.9702
_cell_angle_beta     89.9805
_cell_angle_gamma    90.0188

_space_group_name_H-M_alt    "P 1"
_space_group_IT_number       1

loop_
  _space_group_symop_operation_xyz
  'x, y, z'

loop_
  _atom_site_type_symbol
  _atom_site_label
  _atom_site_symmetry_multiplicity
  _atom_site_fract_x
  _atom_site_fract_y
  _atom_site_fract_z
  _atom_site_occupancy
  Zn  Zn1       1.0  0.20008  0.70434  0.55616  1.0000
  Zn  Zn2       1.0  0.70008  0.20434  0.05616  1.0000
  Zn  Zn3       1.0  0.19999  0.58015  0.68743  1.0000
  Zn  Zn4       1.0  0.69999  0.08015  0.18743  1.0000
  Zn  Zn5       1.0  0.06881  0.70432  0.68742  1.0000
  Zn  Zn6       1.0  0.56881  0.20432  0.18742  1.0000
  Zn  Zn7       1.0  0.06879  0.58019  0.55621  1.0000
  Zn  Zn8       1.0  0.56879  0.08019  0.05621  1.0000
  O   O1        1.0  0.13442  0.64225  0.62181  1.0000
  O   O2        1.0  0.63442  0.14225  0.12181  1.0000
  O   O3        1.0  0.30991  0.68786  0.57357  1.0000
  O   O4        1.0  0.80991  0.18786  0.07357  1.0000
  O   O5        1.0  0.18257  0.59659  0.79728  1.0000
  O   O6        1.0  0.68257  0.09659  0.29728  1.0000
  O   O7        1.0  0.08627  0.80825  0.66998  1.0000
  O   O8        1.0  0.58627  0.30825  0.16998  1.0000
  O   O9        1.0  0.30985  0.59662  0.67001  1.0000
  O   O10       1.0  0.80985  0.09662  0.17001  1.0000
  O   O11       1.0  0.18271  0.80827  0.57355  1.0000
  O   O12       1.0  0.68271  0.30827  0.07355  1.0000
  O   O13       1.0  0.08619  0.68782  0.79727  1.0000
  O   O14       1.0  0.58619  0.18782  0.29727  1.0000
  O   O15       1.0  0.95896  0.68786  0.67002  1.0000
  O   O16       1.0  0.45896  0.18786  0.17002  1.0000
  O   O17       1.0  0.08623  0.59669  0.44636  1.0000
  O   O18       1.0  0.58623  0.09669  0.94636  1.0000
  O   O19       1.0  0.95894  0.59667  0.57363  1.0000
  O   O20       1.0  0.45894  0.09666  0.07363  1.0000
  O   O21       1.0  0.18269  0.68790  0.44632  1.0000
  O   O22       1.0  0.68269  0.18790  0.94632  1.0000
  O   O23       1.0  0.18255  0.47623  0.67005  1.0000
  O   O24       1.0  0.68255  0.97623  0.17005  1.0000
  O   O25       1.0  0.08615  0.47626  0.57364  1.0000
  O   O26       1.0  0.58615  0.97626  0.07364  1.0000
  C   C1        1.0  0.93047  0.64226  0.62183  1.0000
  C   C2        1.0  0.43047  0.14226  0.12183  1.0000
  C   C3        1.0  0.84322  0.64225  0.62182  1.0000
  C   C4        1.0  0.34322  0.14225  0.12182  1.0000
  C   C5        1.0  0.80224  0.59469  0.57171  1.0000
  C   C6        1.0  0.30224  0.09470  0.07171  1.0000
  C   C7        1.0  0.72026  0.59469  0.57169  1.0000
  C   C8        1.0  0.22026  0.09469  0.07169  1.0000
  C   C9        1.0  0.67926  0.64225  0.62180  1.0000
  C   C10       1.0  0.17926  0.14225  0.12180  1.0000
  C   C11       1.0  0.72025  0.68981  0.67191  1.0000
  C   C12       1.0  0.22024  0.18981  0.17191  1.0000
  C   C13       1.0  0.80222  0.68981  0.67192  1.0000
  C   C14       1.0  0.30222  0.18981  0.17192  1.0000
  C   C15       1.0  0.54937  0.68979  0.67189  1.0000
  C   C16       1.0  0.04937  0.18979  0.17189  1.0000
  C   C17       1.0  0.46739  0.68979  0.67189  1.0000
  C   C18       1.0  0.96739  0.18979  0.17189  1.0000
  C   C19       1.0  0.46741  0.59467  0.57166  1.0000
  C   C20       1.0  0.96741  0.09467  0.07167  1.0000
  C   C21       1.0  0.54939  0.59468  0.57167  1.0000
  C   C22       1.0  0.04939  0.09468  0.07167  1.0000
  C   C23       1.0  0.59037  0.64224  0.62179  1.0000
  C   C24       1.0  0.09037  0.14224  0.12179  1.0000
  C   C25       1.0  0.13436  0.44930  0.62184  1.0000
  C   C26       1.0  0.63436  0.94930  0.12184  1.0000
  C   C27       1.0  0.13440  0.36675  0.62182  1.0000
  C   C28       1.0  0.63440  0.86675  0.12182  1.0000
  C   C29       1.0  0.18693  0.16731  0.67418  1.0000
  C   C30       1.0  0.68693  0.66731  0.17418  1.0000
  C   C31       1.0  0.20611  0.11798  0.60254  1.0000
  C   C32       1.0  0.70611  0.61798  0.10254  1.0000
  C   C33       1.0  0.13445  0.21562  0.62179  1.0000
  C   C34       1.0  0.63445  0.71562  0.12179  1.0000
  C   C35       1.0  0.11535  0.11787  0.69340  1.0000
  C   C36       1.0  0.61535  0.61787  0.19340  1.0000
  C   C37       1.0  0.13449  0.06964  0.62177  1.0000
  C   C38       1.0  0.63449  0.56964  0.12177  1.0000
  C   C39       1.0  0.15366  0.16738  0.55011  1.0000
  C   C40       1.0  0.65366  0.66738  0.05011  1.0000
  C   C41       1.0  0.06287  0.16727  0.64103  1.0000
  C   C42       1.0  0.56287  0.66727  0.14103  1.0000
  C   C43       1.0  0.08202  0.11797  0.56934  1.0000
  C   C44       1.0  0.58202  0.61797  0.06934  1.0000
  C   C45       1.0  0.13442  0.29972  0.62181  1.0000
  C   C46       1.0  0.63442  0.79972  0.12181  1.0000
  C   C47       1.0  0.13452  0.98554  0.62175  1.0000
  C   C48       1.0  0.63452  0.48554  0.12175  1.0000
  C   C49       1.0  0.33916  0.64224  0.62178  1.0000
  C   C50       1.0  0.83916  0.14224  0.12178  1.0000
  C   C51       1.0  0.42641  0.64223  0.62177  1.0000
  C   C52       1.0  0.92641  0.14223  0.12177  1.0000
  C   C53       1.0  0.13446  0.64231  0.41706  1.0000
  C   C54       1.0  0.63446  0.14231  0.91706  1.0000
  C   C55       1.0  0.13449  0.64233  0.32981  1.0000
  C   C56       1.0  0.63449  0.14233  0.82981  1.0000
  C   C57       1.0  0.13450  0.83596  0.62176  1.0000
  C   C58       1.0  0.63450  0.33596  0.12176  1.0000
  C   C59       1.0  0.13454  0.91850  0.62174  1.0000
  C   C60       1.0  0.63454  0.41850  0.12174  1.0000
  C   C61       1.0  0.18471  0.68983  0.28880  1.0000
  C   C62       1.0  0.68471  0.18983  0.78880  1.0000
  C   C63       1.0  0.18472  0.68985  0.20682  1.0000
  C   C64       1.0  0.68472  0.18985  0.70682  1.0000
  C   C65       1.0  0.13451  0.64237  0.16585  1.0000
  C   C66       1.0  0.63451  0.14237  0.66585  1.0000
  C   C67       1.0  0.08428  0.59487  0.20687  1.0000
  C   C68       1.0  0.58428  0.09487  0.70687  1.0000
  C   C69       1.0  0.08426  0.59485  0.28885  1.0000
  C   C70       1.0  0.58426  0.09485  0.78885  1.0000
  C   C71       1.0  0.08431  0.59492  0.03600  1.0000
  C   C72       1.0  0.58431  0.09492  0.53600  1.0000
  C   C73       1.0  0.08432  0.59494  0.95401  1.0000
  C   C74       1.0  0.58432  0.09494  0.45401  1.0000
  C   C75       1.0  0.18477  0.68992  0.95397  1.0000
  C   C76       1.0  0.68477  0.18992  0.45397  1.0000
  C   C77       1.0  0.18475  0.68990  0.03595  1.0000
  C   C78       1.0  0.68475  0.18990  0.53595  1.0000
  C   C79       1.0  0.13452  0.64240  0.07696  1.0000
  C   C80       1.0  0.63452  0.14239  0.57696  1.0000
  C   C81       1.0  0.13442  0.64225  0.82575  1.0000
  C   C82       1.0  0.63442  0.14225  0.32575  1.0000
  C   C83       1.0  0.13455  0.64244  0.91300  1.0000
  C   C84       1.0  0.63455  0.14244  0.41300  1.0000
  H   H1        1.0  0.68690  0.55597  0.53089  1.0000
  H   H2        1.0  0.18690  0.05597  0.03089  1.0000
  N   N1        1.0  0.98694  0.19448  0.66149  1.0000
  N   N2        1.0  0.48694  0.69448  0.16149  1.0000
  N   N3        1.0  0.97465  0.26269  0.66420  1.0000
  N   N4        1.0  0.47465  0.76269  0.16420  1.0000
  H   H3        1.0  0.92103  0.28191  0.67866  1.0000
  H   H4        1.0  0.42103  0.78191  0.17866  1.0000
  H   H5        1.0  0.58274  0.72853  0.71270  1.0000
  H   H6        1.0  0.08274  0.22853  0.21270  1.0000
  H   H7        1.0  0.23133  0.18898  0.71843  1.0000
  H   H8        1.0  0.73133  0.68898  0.21843  1.0000
  H   H9        1.0  0.68685  0.72853  0.71271  1.0000
  H   H10       1.0  0.18685  0.22853  0.21271  1.0000
  N   N5        1.0  0.02636  0.09094  0.51369  1.0000
  N   N6        1.0  0.52636  0.59094  0.01369  1.0000
  N   N7        1.0  0.01698  0.02276  0.50502  1.0000
  N   N8        1.0  0.51698  0.52276  0.00502  1.0000
  H   H11       1.0  0.97767  0.00367  0.46572  1.0000
  H   H12       1.0  0.47767  0.50367  0.96572  1.0000
  H   H13       1.0  0.04343  0.55628  0.92066  1.0000
  H   H14       1.0  0.54343  0.05628  0.42066  1.0000
  H   H15       1.0  0.83559  0.72854  0.71273  1.0000
  H   H16       1.0  0.33559  0.22854  0.21272  1.0000
  H   H17       1.0  0.58277  0.55595  0.53088  1.0000
  H   H18       1.0  0.08277  0.05595  0.03088  1.0000
  N   N9        1.0  0.42550  0.73837  0.72305  1.0000
  N   N10       1.0  0.92550  0.23837  0.22305  1.0000
  N   N11       1.0  0.37978  0.78565  0.69533  1.0000
  N   N12       1.0  0.87978  0.28565  0.19533  1.0000
  H   H19       1.0  0.35020  0.81997  0.73146  1.0000
  H   H20       1.0  0.85020  0.31997  0.23146  1.0000
  H   H21       1.0  0.09918  0.09613  0.75397  1.0000
  H   H22       1.0  0.59918  0.59613  0.25397  1.0000
  H   H23       1.0  0.43404  0.55595  0.53086  1.0000
  H   H24       1.0  0.93404  0.05595  0.03086  1.0000
  H   H25       1.0  0.26666  0.09633  0.58625  1.0000
  H   H26       1.0  0.76666  0.59633  0.08625  1.0000
  H   H27       1.0  0.04339  0.55625  0.06938  1.0000
  H   H28       1.0  0.54339  0.05625  0.56938  1.0000
  N   N13       1.0  0.17403  0.19453  0.47410  1.0000
  N   N14       1.0  0.67403  0.69453  0.97410  1.0000
  N   N15       1.0  0.13272  0.17822  0.41621  1.0000
  N   N16       1.0  0.63272  0.67822  0.91621  1.0000
  H   H29       1.0  0.14711  0.19739  0.36253  1.0000
  H   H30       1.0  0.64711  0.69739  0.86253  1.0000
  N   N17       1.0  0.23602  0.73833  0.33064  1.0000
  N   N18       1.0  0.73602  0.23833  0.83064  1.0000
  N   N19       1.0  0.28086  0.78074  0.29401  1.0000
  N   N20       1.0  0.78086  0.28074  0.79401  1.0000
  H   H31       1.0  0.31709  0.81499  0.32355  1.0000
  H   H32       1.0  0.81709  0.31499  0.82355  1.0000
  H   H33       1.0  0.04335  0.55618  0.32223  1.0000
  H   H34       1.0  0.54335  0.05618  0.82223  1.0000
  N   N21       1.0  0.23603  0.73838  0.16495  1.0000
  N   N22       1.0  0.73603  0.23838  0.66494  1.0000
  N   N23       1.0  0.28087  0.78076  0.20154  1.0000
  N   N24       1.0  0.78087  0.28076  0.70154  1.0000
  H   H35       1.0  0.31711  0.81503  0.17196  1.0000
  H   H36       1.0  0.81711  0.31503  0.67196  1.0000
  N   N25       1.0  0.84413  0.54612  0.52053  1.0000
  N   N26       1.0  0.34413  0.04612  0.02053  1.0000
  N   N27       1.0  0.88985  0.49883  0.54825  1.0000
  N   N28       1.0  0.38985  0.99883  0.04825  1.0000
  H   H37       1.0  0.91944  0.46453  0.51211  1.0000
  H   H38       1.0  0.41944  0.96452  0.01211  1.0000
  N   N29       1.0  0.23606  0.73839  0.07779  1.0000
  N   N30       1.0  0.73606  0.23839  0.57779  1.0000
  N   N31       1.0  0.28091  0.78080  0.04117  1.0000
  N   N32       1.0  0.78091  0.28080  0.54117  1.0000
  H   H39       1.0  0.31714  0.81505  0.07072  1.0000
  H   H40       1.0  0.81714  0.31505  0.57072  1.0000
  N   N33       1.0  0.23608  0.73844  0.91208  1.0000
  N   N34       1.0  0.73608  0.23844  0.41208  1.0000
  N   N35       1.0  0.23608  0.73845  0.83888  1.0000
  N   N36       1.0  0.73608  0.23845  0.33888  1.0000
  H   H41       1.0  0.27232  0.77271  0.80929  1.0000
  H   H42       1.0  0.77232  0.27271  0.30929  1.0000
  H   H43       1.0  0.04339  0.55622  0.17350  1.0000
  H   H44       1.0  0.54339  0.05622  0.67350  1.0000
