data_image0
_chemical_formula_structural       Zn4O13C40HCNHCNCNHCNH5CNH3
_chemical_formula_sum              "Zn4 O13 C45 H11 N5"
_cell_length_a       15.2981
_cell_length_b       18.2154
_cell_length_c       18.2154
_cell_angle_alpha    90.0306
_cell_angle_beta     99.6726
_cell_angle_gamma    99.6366

_space_group_name_H-M_alt    "P 1"
_space_group_IT_number       1

loop_
  _space_group_symop_operation_xyz
  'x, y, z'

loop_
  _atom_site_type_symbol
  _atom_site_label
  _atom_site_symmetry_multiplicity
  _atom_site_fract_x
  _atom_site_fract_y
  _atom_site_fract_z
  _atom_site_occupancy
  Zn  Zn1       1.0  0.37899  0.48746  0.77898  1.0000
  Zn  Zn2       1.0  0.37887  0.61051  0.90203  1.0000
  Zn  Zn3       1.0  0.22814  0.46621  0.88069  1.0000
  Zn  Zn4       1.0  0.22810  0.58921  0.75768  1.0000
  O   O1        1.0  0.30353  0.53834  0.82984  1.0000
  O   O2        1.0  0.50520  0.52159  0.81315  1.0000
  O   O3        1.0  0.35885  0.59139  0.00218  1.0000
  O   O4        1.0  0.24822  0.36605  0.86718  1.0000
  O   O5        1.0  0.50512  0.61200  0.90355  1.0000
  O   O6        1.0  0.35904  0.38166  0.79245  1.0000
  O   O7        1.0  0.24811  0.48537  0.98650  1.0000
  O   O8        1.0  0.10191  0.46471  0.84653  1.0000
  O   O9        1.0  0.24815  0.57569  0.65752  1.0000
  O   O10       1.0  0.10188  0.55508  0.75615  1.0000
  O   O11       1.0  0.35900  0.50093  0.67317  1.0000
  O   O12       1.0  0.35881  0.71066  0.88290  1.0000
  O   O13       1.0  0.24804  0.69501  0.77685  1.0000
  C   C1        1.0  0.06917  0.50528  0.79671  1.0000
  C   C2        1.0  0.96891  0.49116  0.78252  1.0000
  C   C3        1.0  0.68612  0.63932  0.93110  1.0000
  C   C4        1.0  0.78032  0.65259  0.94444  1.0000
  C   C5        1.0  0.82747  0.61223  0.90396  1.0000
  C   C6        1.0  0.78041  0.55860  0.85014  1.0000
  C   C7        1.0  0.68620  0.54532  0.83680  1.0000
  C   C8        1.0  0.82756  0.51824  0.80966  1.0000
  C   C9        1.0  0.78050  0.46461  0.75584  1.0000
  C   C10       1.0  0.68630  0.45133  0.74251  1.0000
  C   C11       1.0  0.63915  0.49169  0.78299  1.0000
  C   C12       1.0  0.92176  0.53151  0.82300  1.0000
  C   C13       1.0  0.92185  0.43752  0.72871  1.0000
  C   C14       1.0  0.82765  0.42425  0.71537  1.0000
  C   C15       1.0  0.30343  0.72954  0.82987  1.0000
  C   C16       1.0  0.30347  0.81134  0.82986  1.0000
  C   C17       1.0  0.30358  0.53830  0.63790  1.0000
  C   C18       1.0  0.30361  0.53828  0.55610  1.0000
  C   C19       1.0  0.53880  0.57154  0.86311  1.0000
  C   C20       1.0  0.63906  0.58568  0.87728  1.0000
  C   C21       1.0  0.30365  0.34641  0.82981  1.0000
  C   C22       1.0  0.30370  0.26462  0.82980  1.0000
  C   C23       1.0  0.36129  0.00768  0.88502  1.0000
  C   C24       1.0  0.36133  0.08455  0.88501  1.0000
  C   C25       1.0  0.24588  0.06827  0.77463  1.0000
  C   C26       1.0  0.24585  0.99141  0.77464  1.0000
  C   C27       1.0  0.30355  0.96112  0.82984  1.0000
  C   C28       1.0  0.30362  0.11484  0.82982  1.0000
  C   C29       1.0  0.30367  0.19818  0.82981  1.0000
  C   C30       1.0  0.30351  0.87777  0.82985  1.0000
  C   C31       1.0  0.36135  0.49932  0.37606  1.0000
  C   C32       1.0  0.36136  0.49930  0.29920  1.0000
  C   C33       1.0  0.24593  0.57715  0.28292  1.0000
  C   C34       1.0  0.24591  0.57716  0.35977  1.0000
  C   C35       1.0  0.30363  0.53825  0.40634  1.0000
  C   C36       1.0  0.30365  0.53821  0.25263  1.0000
  C   C37       1.0  0.30366  0.53819  0.16930  1.0000
  C   C38       1.0  0.30362  0.53827  0.48968  1.0000
  C   C39       1.0  0.30352  0.53834  0.02105  1.0000
  C   C40       1.0  0.30368  0.53818  0.10287  1.0000
  H   H1        1.0  0.64772  0.67217  0.96405  1.0000
  C   C41       1.0  0.18241  0.61999  0.39309  1.0000
  N   N1        1.0  0.13458  0.65224  0.41818  1.0000
  H   H2        1.0  0.96007  0.57518  0.86682  1.0000
  C   C42       1.0  0.18234  0.94019  0.71393  1.0000
  N   N2        1.0  0.13452  0.90161  0.66819  1.0000
  C   C43       1.0  0.42486  0.45647  0.26589  1.0000
  N   N3        1.0  0.47269  0.42421  0.24081  1.0000
  H   H3        1.0  0.90417  0.62304  0.91482  1.0000
  C   C44       1.0  0.83207  0.71158  0.00363  1.0000
  N   N4        1.0  0.87105  0.75602  0.04822  1.0000
  H   H4        1.0  0.64799  0.40765  0.69869  1.0000
  H   H5        1.0  0.56244  0.48089  0.77213  1.0000
  H   H6        1.0  0.78933  0.38058  0.67155  1.0000
  H   H7        1.0  0.96024  0.40466  0.69575  1.0000
  H   H8        1.0  0.40834  0.46763  0.41397  1.0000
  C   C45       1.0  0.18240  0.10160  0.71393  1.0000
  N   N5        1.0  0.13459  0.12671  0.66820  1.0000
  H   H9        1.0  0.40827  0.98302  0.92996  1.0000
  H   H10       1.0  0.40835  0.12246  0.92994  1.0000
  H   H11       1.0  0.19894  0.60883  0.24499  1.0000
