data_image0
_chemical_formula_structural       Zn4O13C40HClHCl3H8ClH6Cl
_chemical_formula_sum              "Zn4 O13 C40 H16 Cl6"
_cell_length_a       17.0774
_cell_length_b       12.7594
_cell_length_c       17.0774
_cell_angle_alpha    89.9736
_cell_angle_beta     89.9828
_cell_angle_gamma    90.0149

_space_group_name_H-M_alt    "P 1"
_space_group_IT_number       1

loop_
  _space_group_symop_operation_xyz
  'x, y, z'

loop_
  _atom_site_type_symbol
  _atom_site_label
  _atom_site_symmetry_multiplicity
  _atom_site_fract_x
  _atom_site_fract_y
  _atom_site_fract_z
  _atom_site_occupancy
  Zn  Zn1       1.0  0.20008  0.58175  0.55614  1.0000
  Zn  Zn2       1.0  0.20001  0.40605  0.68740  1.0000
  Zn  Zn3       1.0  0.06882  0.58171  0.68739  1.0000
  Zn  Zn4       1.0  0.06880  0.40611  0.55618  1.0000
  O   O1        1.0  0.13443  0.49390  0.62178  1.0000
  O   O2        1.0  0.30992  0.55843  0.57354  1.0000
  O   O3        1.0  0.18259  0.42930  0.79725  1.0000
  O   O4        1.0  0.08627  0.72874  0.66996  1.0000
  O   O5        1.0  0.30987  0.42934  0.66998  1.0000
  O   O6        1.0  0.18271  0.72876  0.57353  1.0000
  O   O7        1.0  0.08620  0.55836  0.79724  1.0000
  O   O8        1.0  0.95897  0.55843  0.67000  1.0000
  O   O9        1.0  0.08624  0.42945  0.44633  1.0000
  O   O10       1.0  0.95896  0.42941  0.57360  1.0000
  O   O11       1.0  0.18269  0.55849  0.44630  1.0000
  O   O12       1.0  0.18257  0.25903  0.67001  1.0000
  O   O13       1.0  0.08617  0.25908  0.57360  1.0000
  C   C1        1.0  0.93048  0.49392  0.62180  1.0000
  C   C2        1.0  0.84323  0.49391  0.62179  1.0000
  C   C3        1.0  0.80225  0.42663  0.57167  1.0000
  C   C4        1.0  0.72027  0.42662  0.57166  1.0000
  C   C5        1.0  0.67927  0.49390  0.62177  1.0000
  C   C6        1.0  0.72025  0.56118  0.67189  1.0000
  C   C7        1.0  0.80223  0.56119  0.67190  1.0000
  C   C8        1.0  0.54938  0.56116  0.67187  1.0000
  C   C9        1.0  0.46740  0.56115  0.67186  1.0000
  C   C10       1.0  0.46742  0.42660  0.57163  1.0000
  C   C11       1.0  0.54940  0.42661  0.57164  1.0000
  C   C12       1.0  0.59038  0.49389  0.62176  1.0000
  C   C13       1.0  0.13438  0.22094  0.62179  1.0000
  C   C14       1.0  0.13443  0.10416  0.62177  1.0000
  C   C15       1.0  0.18469  0.04931  0.67192  1.0000
  C   C16       1.0  0.18473  0.93958  0.67190  1.0000
  C   C17       1.0  0.08427  0.93957  0.57158  1.0000
  C   C18       1.0  0.08423  0.04929  0.57160  1.0000
  C   C19       1.0  0.23489  0.10417  0.72209  1.0000
  C   C20       1.0  0.28515  0.04932  0.77225  1.0000
  C   C21       1.0  0.28519  0.93960  0.77222  1.0000
  C   C22       1.0  0.23499  0.88472  0.72205  1.0000
  C   C23       1.0  0.33917  0.49388  0.62176  1.0000
  C   C24       1.0  0.42642  0.49388  0.62175  1.0000
  C   C25       1.0  0.13447  0.49399  0.41703  1.0000
  C   C26       1.0  0.13448  0.49402  0.32978  1.0000
  C   C27       1.0  0.13450  0.76794  0.62174  1.0000
  C   C28       1.0  0.13453  0.88471  0.62173  1.0000
  C   C29       1.0  0.08431  0.56123  0.28879  1.0000
  C   C30       1.0  0.08432  0.56125  0.20681  1.0000
  C   C31       1.0  0.13451  0.49407  0.16583  1.0000
  C   C32       1.0  0.18469  0.42686  0.20682  1.0000
  C   C33       1.0  0.18467  0.42683  0.28880  1.0000
  C   C34       1.0  0.18473  0.42692  0.03595  1.0000
  C   C35       1.0  0.18474  0.42695  0.95397  1.0000
  C   C36       1.0  0.08437  0.56135  0.95396  1.0000
  C   C37       1.0  0.08436  0.56132  0.03594  1.0000
  C   C38       1.0  0.13454  0.49410  0.07693  1.0000
  C   C39       1.0  0.13443  0.49390  0.82573  1.0000
  C   C40       1.0  0.13457  0.49416  0.91297  1.0000
  H   H1        1.0  0.68691  0.37184  0.53085  1.0000
  Cl  Cl1       1.0  0.02121  0.64570  0.34031  1.0000
  H   H2        1.0  0.04331  0.09396  0.53077  1.0000
  Cl  Cl2       1.0  0.41591  0.34203  0.50861  1.0000
  Cl  Cl3       1.0  0.02116  0.87059  0.50851  1.0000
  Cl  Cl4       1.0  0.24785  0.34250  0.90244  1.0000
  H   H3        1.0  0.58274  0.61596  0.71268  1.0000
  H   H4        1.0  0.22559  0.37220  0.06933  1.0000
  H   H5        1.0  0.68686  0.61596  0.71269  1.0000
  H   H6        1.0  0.83559  0.61598  0.71270  1.0000
  H   H7        1.0  0.22554  0.37211  0.32218  1.0000
  H   H8        1.0  0.04346  0.61598  0.17344  1.0000
  H   H9        1.0  0.32612  0.89494  0.81305  1.0000
  H   H10       1.0  0.23486  0.19351  0.72212  1.0000
  Cl  Cl5       1.0  0.02130  0.64585  0.90243  1.0000
  H   H11       1.0  0.23504  0.79538  0.72202  1.0000
  H   H12       1.0  0.32603  0.09400  0.81309  1.0000
  H   H13       1.0  0.43402  0.61594  0.71266  1.0000
  H   H14       1.0  0.04349  0.61603  0.06931  1.0000
  H   H15       1.0  0.22555  0.37215  0.17344  1.0000
  H   H16       1.0  0.58279  0.37182  0.53084  1.0000
  Cl  Cl6       1.0  0.85379  0.34205  0.50868  1.0000
