data_image0
_chemical_formula_structural       Zn8O26C76H2F18H8F2H4F2H2F4H2F2H2
_chemical_formula_sum              "Zn8 O26 C76 H20 F28"
_cell_length_a       14.9086
_cell_length_b       18.1014
_cell_length_c       14.9083
_cell_angle_alpha    93.2663
_cell_angle_beta     90.1751
_cell_angle_gamma    86.7273

_space_group_name_H-M_alt    "P 1"
_space_group_IT_number       1

loop_
  _space_group_symop_operation_xyz
  'x, y, z'

loop_
  _atom_site_type_symbol
  _atom_site_label
  _atom_site_symmetry_multiplicity
  _atom_site_fract_x
  _atom_site_fract_y
  _atom_site_fract_z
  _atom_site_occupancy
  Zn  Zn1       1.0  0.34521  0.61353  0.41243  1.0000
  Zn  Zn2       1.0  0.84521  0.11353  0.91243  1.0000
  Zn  Zn3       1.0  0.35376  0.49640  0.56279  1.0000
  Zn  Zn4       1.0  0.85376  0.99640  0.06279  1.0000
  Zn  Zn5       1.0  0.20353  0.62776  0.57143  1.0000
  Zn  Zn6       1.0  0.70353  0.12776  0.07143  1.0000
  Zn  Zn7       1.0  0.19479  0.49728  0.42114  1.0000
  Zn  Zn8       1.0  0.69479  0.99728  0.92114  1.0000
  O   O1        1.0  0.27432  0.55874  0.49194  1.0000
  O   O2        1.0  0.77432  0.05874  0.99194  1.0000
  O   O3        1.0  0.47217  0.59167  0.42511  1.0000
  O   O4        1.0  0.97217  0.09167  0.92511  1.0000
  O   O5        1.0  0.34107  0.51941  0.68976  1.0000
  O   O6        1.0  0.84107  0.01941  0.18976  1.0000
  O   O7        1.0  0.22240  0.72950  0.55031  1.0000
  O   O8        1.0  0.72240  0.22950  0.05031  1.0000
  O   O9        1.0  0.47845  0.50561  0.53558  1.0000
  O   O10       1.0  0.97845  0.00561  0.03558  1.0000
  O   O11       1.0  0.32649  0.71905  0.43349  1.0000
  O   O12       1.0  0.82649  0.21905  0.93349  1.0000
  O   O13       1.0  0.23069  0.61591  0.69610  1.0000
  O   O14       1.0  0.73069  0.11591  0.19611  1.0000
  O   O15       1.0  0.07654  0.61677  0.55875  1.0000
  O   O16       1.0  0.57654  0.11677  0.05875  1.0000
  O   O17       1.0  0.20751  0.50711  0.29416  1.0000
  O   O18       1.0  0.70751  0.00711  0.79416  1.0000
  O   O19       1.0  0.07012  0.52091  0.44833  1.0000
  O   O20       1.0  0.57012  0.02091  0.94833  1.0000
  O   O21       1.0  0.31802  0.59253  0.28776  1.0000
  O   O22       1.0  0.81802  0.09253  0.78776  1.0000
  O   O23       1.0  0.33260  0.39289  0.54403  1.0000
  O   O24       1.0  0.83260  0.89288  0.04403  1.0000
  O   O25       1.0  0.21580  0.39353  0.43996  1.0000
  O   O26       1.0  0.71580  0.89353  0.93996  1.0000
  C   C1        1.0  0.04071  0.57048  0.50542  1.0000
  C   C2        1.0  0.54071  0.07048  0.00542  1.0000
  C   C3        1.0  0.94077  0.57548  0.51117  1.0000
  C   C4        1.0  0.44077  0.07548  0.01117  1.0000
  C   C5        1.0  0.74634  0.48491  0.40714  1.0000
  C   C6        1.0  0.24634  0.98491  0.90714  1.0000
  C   C7        1.0  0.65243  0.48961  0.41254  1.0000
  C   C8        1.0  0.15243  0.98961  0.91254  1.0000
  C   C9        1.0  0.65905  0.58957  0.52735  1.0000
  C   C10       1.0  0.15905  0.08957  0.02735  1.0000
  C   C11       1.0  0.75296  0.58488  0.52196  1.0000
  C   C12       1.0  0.25296  0.08487  0.02196  1.0000
  C   C13       1.0  0.79660  0.53254  0.46185  1.0000
  C   C14       1.0  0.29660  0.03254  0.96185  1.0000
  C   C15       1.0  0.89050  0.52784  0.45646  1.0000
  C   C16       1.0  0.39050  0.02784  0.95646  1.0000
  C   C17       1.0  0.89712  0.62781  0.57127  1.0000
  C   C18       1.0  0.39712  0.12781  0.07127  1.0000
  C   C19       1.0  0.80321  0.63250  0.57666  1.0000
  C   C20       1.0  0.30321  0.13250  0.07666  1.0000
  C   C21       1.0  0.27420  0.36634  0.49198  1.0000
  C   C22       1.0  0.77420  0.86634  0.99198  1.0000
  C   C23       1.0  0.27423  0.28402  0.49196  1.0000
  C   C24       1.0  0.77423  0.78402  0.99196  1.0000
  C   C25       1.0  0.27443  0.98492  0.49190  1.0000
  C   C26       1.0  0.77443  0.48492  0.99190  1.0000
  C   C27       1.0  0.20109  0.01660  0.42624  1.0000
  C   C28       1.0  0.70109  0.51660  0.92624  1.0000
  C   C29       1.0  0.20078  0.10225  0.42647  1.0000
  C   C30       1.0  0.70078  0.60225  0.92647  1.0000
  C   C31       1.0  0.27433  0.13331  0.49192  1.0000
  C   C32       1.0  0.77433  0.63331  0.99193  1.0000
  C   C33       1.0  0.25415  0.10767  0.58817  1.0000
  C   C34       1.0  0.75415  0.60767  0.08817  1.0000
  C   C35       1.0  0.25368  0.02203  0.58777  1.0000
  C   C36       1.0  0.75368  0.52203  0.08777  1.0000
  C   C37       1.0  0.36814  0.01072  0.46214  1.0000
  C   C38       1.0  0.86814  0.51072  0.96214  1.0000
  C   C39       1.0  0.36746  0.09631  0.46010  1.0000
  C   C40       1.0  0.86746  0.59630  0.96010  1.0000
  C   C41       1.0  0.27428  0.21717  0.49195  1.0000
  C   C42       1.0  0.77428  0.71717  0.99195  1.0000
  C   C43       1.0  0.27448  0.90106  0.49188  1.0000
  C   C44       1.0  0.77448  0.40106  0.99188  1.0000
  C   C45       1.0  0.50885  0.54696  0.47841  1.0000
  C   C46       1.0  0.00885  0.04696  0.97841  1.0000
  C   C47       1.0  0.60879  0.54194  0.47264  1.0000
  C   C48       1.0  0.10879  0.04194  0.97264  1.0000
  C   C49       1.0  0.26083  0.54833  0.25742  1.0000
  C   C50       1.0  0.76083  0.04833  0.75742  1.0000
  C   C51       1.0  0.25509  0.54390  0.15748  1.0000
  C   C52       1.0  0.75509  0.04390  0.65748  1.0000
  C   C53       1.0  0.27446  0.75189  0.49189  1.0000
  C   C54       1.0  0.77446  0.25189  0.99189  1.0000
  C   C55       1.0  0.27452  0.83420  0.49187  1.0000
  C   C56       1.0  0.77452  0.33420  0.99187  1.0000
  C   C57       1.0  0.35936  0.62452  0.96301  1.0000
  C   C58       1.0  0.85936  0.12452  0.46301  1.0000
  C   C59       1.0  0.35396  0.62035  0.86911  1.0000
  C   C60       1.0  0.85396  0.12035  0.36911  1.0000
  C   C61       1.0  0.23889  0.53140  0.87577  1.0000
  C   C62       1.0  0.73889  0.03140  0.37577  1.0000
  C   C63       1.0  0.24429  0.53557  0.96967  1.0000
  C   C64       1.0  0.74429  0.03557  0.46967  1.0000
  C   C65       1.0  0.30452  0.58213  0.01329  1.0000
  C   C66       1.0  0.80452  0.08213  0.51329  1.0000
  C   C67       1.0  0.30993  0.58629  0.10719  1.0000
  C   C68       1.0  0.80993  0.08629  0.60720  1.0000
  C   C69       1.0  0.19485  0.49734  0.11385  1.0000
  C   C70       1.0  0.69485  0.99734  0.61385  1.0000
  C   C71       1.0  0.18945  0.49318  0.01995  1.0000
  C   C72       1.0  0.68945  0.99318  0.51995  1.0000
  C   C73       1.0  0.28781  0.56916  0.72555  1.0000
  C   C74       1.0  0.78781  0.06916  0.22555  1.0000
  C   C75       1.0  0.29373  0.57380  0.82548  1.0000
  C   C76       1.0  0.79373  0.07379  0.32548  1.0000
  H   H1        1.0  0.61152  0.45083  0.36799  1.0000
  H   H2        1.0  0.11152  0.95083  0.86799  1.0000
  F   F1        1.0  0.61259  0.64527  0.59130  1.0000
  F   F2        1.0  0.11259  0.14527  0.09130  1.0000
  F   F3        1.0  0.32208  0.13419  0.65417  1.0000
  F   F4        1.0  0.82208  0.63419  0.15417  1.0000
  F   F5        1.0  0.12535  0.44363  0.97351  1.0000
  F   F6        1.0  0.62535  0.94363  0.47351  1.0000
  F   F7        1.0  0.13650  0.45222  0.16736  1.0000
  F   F8        1.0  0.63650  0.95222  0.66736  1.0000
  F   F9        1.0  0.75676  0.68820  0.64063  1.0000
  F   F10       1.0  0.25676  0.18820  0.14063  1.0000
  F   F11       1.0  0.37404  0.63583  0.15362  1.0000
  F   F12       1.0  0.87404  0.13584  0.65362  1.0000
  F   F13       1.0  0.79279  0.42921  0.34318  1.0000
  F   F14       1.0  0.29279  0.92921  0.84318  1.0000
  F   F15       1.0  0.21645  0.12463  0.33342  1.0000
  F   F16       1.0  0.71645  0.62463  0.83342  1.0000
  F   F17       1.0  0.93695  0.47215  0.39249  1.0000
  F   F18       1.0  0.43695  0.97215  0.89249  1.0000
  H   H3        1.0  0.93805  0.66659  0.61582  1.0000
  H   H4        1.0  0.43805  0.16659  0.11582  1.0000
  H   H5        1.0  0.18985  0.49350  0.84023  1.0000
  H   H6        1.0  0.68985  0.99350  0.34023  1.0000
  H   H7        1.0  0.18533  0.00639  0.61234  1.0000
  H   H8        1.0  0.68533  0.50639  0.11234  1.0000
  H   H9        1.0  0.21291  0.99211  0.35483  1.0000
  H   H10       1.0  0.71291  0.49211  0.85483  1.0000
  F   F19       1.0  0.11070  0.99389  0.45225  1.0000
  F   F20       1.0  0.61070  0.49389  0.95225  1.0000
  H   H11       1.0  0.13120  0.12692  0.44661  1.0000
  H   H12       1.0  0.63120  0.62692  0.94661  1.0000
  H   H13       1.0  0.42455  0.11709  0.50400  1.0000
  H   H14       1.0  0.92455  0.61709  0.00400  1.0000
  F   F21       1.0  0.42348  0.67406  0.00944  1.0000
  F   F22       1.0  0.92348  0.17406  0.50944  1.0000
  H   H15       1.0  0.30507  0.00128  0.63866  1.0000
  H   H16       1.0  0.80507  0.50128  0.13866  1.0000
  F   F23       1.0  0.16581  0.14135  0.62070  1.0000
  F   F24       1.0  0.66581  0.64135  0.12070  1.0000
  F   F25       1.0  0.41232  0.66547  0.81561  1.0000
  F   F26       1.0  0.91232  0.16547  0.31561  1.0000
  H   H17       1.0  0.38278  0.11259  0.38924  1.0000
  H   H18       1.0  0.88278  0.61259  0.88924  1.0000
  F   F27       1.0  0.39359  0.97706  0.37160  1.0000
  F   F28       1.0  0.89359  0.47706  0.87160  1.0000
  H   H19       1.0  0.42271  0.99014  0.50990  1.0000
  H   H20       1.0  0.92271  0.49014  0.00990  1.0000
