data_image0
_chemical_formula_structural       VO4VO6C8HC2H7VO4VO6C8HC2H7
_chemical_formula_sum              "V4 O20 C20 H16"
_cell_length_a       13.6358
_cell_length_b       9.51409
_cell_length_c       9.10931
_cell_angle_alpha    93.1643
_cell_angle_beta     111.765
_cell_angle_gamma    118.844

_space_group_name_H-M_alt    "P 1"
_space_group_IT_number       1

loop_
  _space_group_symop_operation_xyz
  'x, y, z'

loop_
  _atom_site_type_symbol
  _atom_site_label
  _atom_site_symmetry_multiplicity
  _atom_site_fract_x
  _atom_site_fract_y
  _atom_site_fract_z
  _atom_site_occupancy
  V   V1        1.0  0.35712  0.46777  0.77157  1.0000
  O   O1        1.0  0.40051  0.50989  0.00800  1.0000
  O   O2        1.0  0.34889  0.44064  0.54993  1.0000
  O   O3        1.0  0.34006  0.24968  0.77378  1.0000
  O   O4        1.0  0.40940  0.70217  0.78260  1.0000
  V   V2        1.0  0.12485  0.49954  0.80001  1.0000
  O   O5        1.0  0.20566  0.39807  0.70920  1.0000
  O   O6        1.0  0.05122  0.56924  0.86238  1.0000
  O   O7        1.0  0.24469  0.52667  0.02165  1.0000
  O   O8        1.0  0.02276  0.45742  0.56358  1.0000
  O   O9        1.0  0.01387  0.26514  0.78898  1.0000
  O   O10       1.0  0.25352  0.71763  0.79780  1.0000
  C   C1        1.0  0.41983  0.44110  0.49594  1.0000
  C   C2        1.0  0.37218  0.41747  0.31473  1.0000
  C   C3        1.0  0.40857  0.19751  0.78149  1.0000
  C   C4        1.0  0.35377  0.01902  0.78183  1.0000
  C   C5        1.0  0.34208  0.52622  0.07563  1.0000
  C   C6        1.0  0.40010  0.54984  0.25684  1.0000
  C   C7        1.0  0.35333  0.76981  0.79009  1.0000
  C   C8        1.0  0.41852  0.94830  0.78976  1.0000
  H   H1        1.0  0.01588  0.02429  0.79627  1.0000
  C   C9        1.0  0.41362  0.80440  0.34272  1.0000
  C   C10       1.0  0.48157  0.72729  0.37707  1.0000
  H   H2        1.0  0.46391  0.91395  0.41696  1.0000
  H   H3        1.0  0.39123  0.81123  0.23265  1.0000
  H   H4        1.0  0.33963  0.74031  0.35528  1.0000
  H   H5        1.0  0.05555  0.79137  0.36450  1.0000
  H   H6        1.0  0.00397  0.72047  0.48717  1.0000
  H   H7        1.0  0.31182  0.28601  0.22565  1.0000
  H   H8        1.0  0.25640  0.94302  0.77529  1.0000
  V   V3        1.0  0.85712  0.46777  0.77157  1.0000
  O   O11       1.0  0.90051  0.50989  0.00800  1.0000
  O   O12       1.0  0.84889  0.44064  0.54993  1.0000
  O   O13       1.0  0.84006  0.24968  0.77378  1.0000
  O   O14       1.0  0.90940  0.70217  0.78260  1.0000
  V   V4        1.0  0.62485  0.49954  0.80001  1.0000
  O   O15       1.0  0.70566  0.39807  0.70920  1.0000
  O   O16       1.0  0.55122  0.56924  0.86238  1.0000
  O   O17       1.0  0.74469  0.52667  0.02165  1.0000
  O   O18       1.0  0.52276  0.45742  0.56358  1.0000
  O   O19       1.0  0.51387  0.26514  0.78898  1.0000
  O   O20       1.0  0.75352  0.71763  0.79780  1.0000
  C   C11       1.0  0.91983  0.44110  0.49594  1.0000
  C   C12       1.0  0.87218  0.41747  0.31473  1.0000
  C   C13       1.0  0.90857  0.19751  0.78149  1.0000
  C   C14       1.0  0.85377  0.01902  0.78183  1.0000
  C   C15       1.0  0.84208  0.52622  0.07563  1.0000
  C   C16       1.0  0.90010  0.54984  0.25684  1.0000
  C   C17       1.0  0.85333  0.76981  0.79009  1.0000
  C   C18       1.0  0.91852  0.94830  0.78976  1.0000
  H   H9        1.0  0.51588  0.02429  0.79627  1.0000
  C   C19       1.0  0.91362  0.80440  0.34272  1.0000
  C   C20       1.0  0.98157  0.72729  0.37707  1.0000
  H   H10       1.0  0.96391  0.91395  0.41696  1.0000
  H   H11       1.0  0.89123  0.81123  0.23265  1.0000
  H   H12       1.0  0.83963  0.74031  0.35528  1.0000
  H   H13       1.0  0.55555  0.79137  0.36450  1.0000
  H   H14       1.0  0.50397  0.72047  0.48717  1.0000
  H   H15       1.0  0.81182  0.28601  0.22565  1.0000
  H   H16       1.0  0.75640  0.94302  0.77529  1.0000
