data_image0
_chemical_formula_structural       Zn12O39C54H3C3N3C3N3C3N3H3C3N3C3N3H6C3N3C3N3C3N3
_chemical_formula_sum              "Zn12 O39 C78 H12 N24"
_cell_length_a       13.0328
_cell_length_b       13.0327
_cell_length_c       13.0333
_cell_angle_alpha    105.164
_cell_angle_beta     103.316
_cell_angle_gamma    89.0971

_space_group_name_H-M_alt    "P 1"
_space_group_IT_number       1

loop_
  _space_group_symop_operation_xyz
  'x, y, z'

loop_
  _atom_site_type_symbol
  _atom_site_label
  _atom_site_symmetry_multiplicity
  _atom_site_fract_x
  _atom_site_fract_y
  _atom_site_fract_z
  _atom_site_occupancy
  Zn  Zn1       1.0  0.61700  0.73495  0.88917  1.0000
  Zn  Zn2       1.0  0.95033  0.06828  0.22250  1.0000
  Zn  Zn3       1.0  0.28367  0.40162  0.55583  1.0000
  Zn  Zn4       1.0  0.57754  0.88422  0.72837  1.0000
  Zn  Zn5       1.0  0.91088  0.21755  0.06170  1.0000
  Zn  Zn6       1.0  0.24421  0.55089  0.39504  1.0000
  Zn  Zn7       1.0  0.42262  0.68405  0.68333  1.0000
  Zn  Zn8       1.0  0.75595  0.01738  0.01667  1.0000
  Zn  Zn9       1.0  0.08929  0.35071  0.35000  1.0000
  Zn  Zn10      1.0  0.42252  0.88418  0.88341  1.0000
  Zn  Zn11      1.0  0.75585  0.21752  0.21674  1.0000
  Zn  Zn12      1.0  0.08919  0.55085  0.55007  1.0000
  O   O1        1.0  0.50992  0.79685  0.79607  1.0000
  O   O2        1.0  0.84325  0.13018  0.12940  1.0000
  O   O3        1.0  0.17659  0.46352  0.46274  1.0000
  O   O4        1.0  0.75799  0.77607  0.88910  1.0000
  O   O5        1.0  0.09133  0.10940  0.22243  1.0000
  O   O6        1.0  0.42466  0.44273  0.55576  1.0000
  O   O7        1.0  0.54052  0.83638  0.57137  1.0000
  O   O8        1.0  0.87386  0.16971  0.90471  1.0000
  O   O9        1.0  0.20719  0.50305  0.23804  1.0000
  O   O10       1.0  0.46496  0.54457  0.69420  1.0000
  O   O11       1.0  0.79829  0.87791  0.02754  1.0000
  O   O12       1.0  0.13163  0.21124  0.36087  1.0000
  O   O13       1.0  0.72900  0.88574  0.77096  1.0000
  O   O14       1.0  0.06234  0.21907  0.10429  1.0000
  O   O15       1.0  0.39567  0.55240  0.43763  1.0000
  O   O16       1.0  0.60777  0.58197  0.84543  1.0000
  O   O17       1.0  0.94110  0.91530  0.17876  1.0000
  O   O18       1.0  0.27443  0.24864  0.51209  1.0000
  O   O19       1.0  0.42670  0.68931  0.53828  1.0000
  O   O20       1.0  0.76003  0.02265  0.87162  1.0000
  O   O21       1.0  0.09337  0.35598  0.20495  1.0000
  O   O22       1.0  0.27638  0.68928  0.68861  1.0000
  O   O23       1.0  0.60971  0.02261  0.02195  1.0000
  O   O24       1.0  0.94305  0.35595  0.35528  1.0000
  O   O25       1.0  0.46479  0.88567  0.03519  1.0000
  O   O26       1.0  0.79812  0.21901  0.36853  1.0000
  O   O27       1.0  0.13146  0.55234  0.70186  1.0000
  O   O28       1.0  0.27631  0.83632  0.83561  1.0000
  O   O29       1.0  0.60964  0.16965  0.16894  1.0000
  O   O30       1.0  0.94297  0.50298  0.50227  1.0000
  O   O31       1.0  0.60767  0.77603  0.03943  1.0000
  O   O32       1.0  0.94101  0.10937  0.37276  1.0000
  O   O33       1.0  0.27434  0.44270  0.70609  1.0000
  O   O34       1.0  0.54043  0.03044  0.76537  1.0000
  O   O35       1.0  0.87376  0.36377  0.09871  1.0000
  O   O36       1.0  0.20709  0.69711  0.43204  1.0000
  O   O37       1.0  0.42653  0.03042  0.87928  1.0000
  O   O38       1.0  0.75986  0.36375  0.21261  1.0000
  O   O39       1.0  0.09320  0.69708  0.54594  1.0000
  C   C1        1.0  0.23843  0.75727  0.75660  1.0000
  C   C2        1.0  0.57176  0.09060  0.08993  1.0000
  C   C3        1.0  0.90509  0.42394  0.42326  1.0000
  C   C4        1.0  0.12228  0.74037  0.73974  1.0000
  C   C5        1.0  0.45562  0.07370  0.07308  1.0000
  C   C6        1.0  0.78895  0.40703  0.40641  1.0000
  C   C7        1.0  0.07047  0.80567  0.80487  1.0000
  C   C8        1.0  0.40380  0.13901  0.13820  1.0000
  C   C9        1.0  0.73714  0.47234  0.47153  1.0000
  C   C10       1.0  0.95043  0.78820  0.78745  1.0000
  C   C11       1.0  0.28376  0.12154  0.12078  1.0000
  C   C12       1.0  0.61709  0.45487  0.45411  1.0000
  C   C13       1.0  0.47922  0.06835  0.82661  1.0000
  C   C14       1.0  0.81255  0.40168  0.15995  1.0000
  C   C15       1.0  0.14588  0.73502  0.49328  1.0000
  C   C16       1.0  0.46618  0.18452  0.83973  1.0000
  C   C17       1.0  0.79952  0.51785  0.17307  1.0000
  C   C18       1.0  0.13285  0.85118  0.50640  1.0000
  C   C19       1.0  0.54062  0.83653  0.07757  1.0000
  C   C20       1.0  0.87396  0.16986  0.41090  1.0000
  C   C21       1.0  0.20729  0.50319  0.74423  1.0000
  C   C22       1.0  0.55370  0.85344  0.19752  1.0000
  C   C23       1.0  0.88704  0.18677  0.53086  1.0000
  C   C24       1.0  0.22037  0.52010  0.86419  1.0000
  C   C25       1.0  0.78247  0.83658  0.83569  1.0000
  C   C26       1.0  0.11581  0.16992  0.16903  1.0000
  C   C27       1.0  0.44914  0.50325  0.50236  1.0000
  C   C28       1.0  0.89862  0.85352  0.85258  1.0000
  C   C29       1.0  0.23195  0.18685  0.18592  1.0000
  C   C30       1.0  0.56529  0.52018  0.51925  1.0000
  C   C31       1.0  0.54078  0.52430  0.76543  1.0000
  C   C32       1.0  0.87411  0.85763  0.09877  1.0000
  C   C33       1.0  0.20744  0.19096  0.43210  1.0000
  C   C34       1.0  0.55392  0.40815  0.75238  1.0000
  C   C35       1.0  0.88726  0.74148  0.08571  1.0000
  C   C36       1.0  0.22059  0.07482  0.41904  1.0000
  C   C37       1.0  0.51678  0.23630  0.78928  1.0000
  C   C38       1.0  0.85012  0.56964  0.12261  1.0000
  C   C39       1.0  0.18345  0.90297  0.45595  1.0000
  C   C40       1.0  0.50331  0.35637  0.80284  1.0000
  C   C41       1.0  0.83665  0.68970  0.13617  1.0000
  C   C42       1.0  0.16998  0.02304  0.46950  1.0000
  C   C43       1.0  0.50322  0.78821  0.23463  1.0000
  C   C44       1.0  0.83655  0.12154  0.56796  1.0000
  C   C45       1.0  0.16989  0.45488  0.90130  1.0000
  C   C46       1.0  0.51674  0.80568  0.35861  1.0000
  C   C47       1.0  0.85007  0.13902  0.69194  1.0000
  C   C48       1.0  0.18341  0.47235  0.02528  1.0000
  C   C49       1.0  0.47933  0.75735  0.51567  1.0000
  C   C50       1.0  0.81266  0.09068  0.84900  1.0000
  C   C51       1.0  0.14600  0.42402  0.18234  1.0000
  C   C52       1.0  0.46625  0.74045  0.39572  1.0000
  C   C53       1.0  0.79958  0.07378  0.72905  1.0000
  C   C54       1.0  0.13292  0.40711  0.06238  1.0000
  H   H1        1.0  0.94313  0.92236  0.92125  1.0000
  H   H2        1.0  0.27646  0.25569  0.25458  1.0000
  H   H3        1.0  0.60979  0.58902  0.58791  1.0000
  C   C55       1.0  0.58856  0.89868  0.43968  1.0000
  C   C56       1.0  0.92189  0.23202  0.77301  1.0000
  C   C57       1.0  0.25522  0.56535  0.10635  1.0000
  N   N1        1.0  0.64261  0.96876  0.50074  1.0000
  N   N2        1.0  0.97595  0.30209  0.83407  1.0000
  N   N3        1.0  0.30928  0.63543  0.16741  1.0000
  C   C58       1.0  0.62593  0.34797  0.68046  1.0000
  C   C59       1.0  0.95926  0.68131  0.01379  1.0000
  C   C60       1.0  0.29260  0.01464  0.34713  1.0000
  N   N4        1.0  0.68016  0.30265  0.62629  1.0000
  N   N5        1.0  0.01350  0.63598  0.95962  1.0000
  N   N6        1.0  0.34683  0.96931  0.29296  1.0000
  C   C61       1.0  0.62552  0.94643  0.27859  1.0000
  C   C62       1.0  0.95885  0.27977  0.61193  1.0000
  C   C63       1.0  0.29218  0.61310  0.94526  1.0000
  N   N7        1.0  0.67957  0.01651  0.33965  1.0000
  N   N8        1.0  0.01291  0.34984  0.67299  1.0000
  N   N9        1.0  0.34624  0.68317  0.00632  1.0000
  H   H4        1.0  0.90592  0.71935  0.71879  1.0000
  H   H5        1.0  0.23925  0.05269  0.05212  1.0000
  H   H6        1.0  0.57259  0.38602  0.38546  1.0000
  C   C64       1.0  0.13060  0.89868  0.89762  1.0000
  C   C65       1.0  0.46393  0.23201  0.23095  1.0000
  C   C66       1.0  0.79727  0.56534  0.56428  1.0000
  N   N10       1.0  0.17589  0.96874  0.96748  1.0000
  N   N11       1.0  0.50922  0.30207  0.30081  1.0000
  N   N12       1.0  0.84255  0.63540  0.63414  1.0000
  C   C67       1.0  0.43131  0.41655  0.87475  1.0000
  C   C68       1.0  0.76464  0.74988  0.20808  1.0000
  C   C69       1.0  0.09797  0.08321  0.54142  1.0000
  N   N13       1.0  0.37707  0.46188  0.92891  1.0000
  N   N14       1.0  0.71040  0.79521  0.26225  1.0000
  N   N15       1.0  0.04373  0.12854  0.59558  1.0000
  H   H7        1.0  0.07777  0.67152  0.67109  1.0000
  H   H8        1.0  0.41110  0.00486  0.00442  1.0000
  H   H9        1.0  0.74444  0.33819  0.33776  1.0000
  H   H10       1.0  0.57009  0.19175  0.73606  1.0000
  H   H11       1.0  0.90342  0.52509  0.06939  1.0000
  H   H12       1.0  0.23675  0.85842  0.40272  1.0000
  C   C70       1.0  0.39418  0.24470  0.91164  1.0000
  C   C71       1.0  0.72751  0.57803  0.24498  1.0000
  C   C72       1.0  0.06084  0.91137  0.57831  1.0000
  N   N16       1.0  0.33994  0.29003  0.96581  1.0000
  N   N17       1.0  0.67327  0.62336  0.29914  1.0000
  N   N18       1.0  0.00661  0.95670  0.63247  1.0000
  C   C73       1.0  0.43131  0.69528  0.15356  1.0000
  C   C74       1.0  0.76465  0.02862  0.48689  1.0000
  C   C75       1.0  0.09798  0.36195  0.82022  1.0000
  N   N19       1.0  0.37716  0.62528  0.09249  1.0000
  N   N20       1.0  0.71049  0.95861  0.42582  1.0000
  N   N21       1.0  0.04383  0.29195  0.75916  1.0000
  C   C76       1.0  0.39433  0.64752  0.31465  1.0000
  C   C77       1.0  0.72766  0.98086  0.64798  1.0000
  C   C78       1.0  0.06099  0.31419  0.98131  1.0000
  N   N22       1.0  0.34016  0.57753  0.25358  1.0000
  N   N23       1.0  0.67349  0.91087  0.58692  1.0000
  N   N24       1.0  0.00683  0.24420  0.92025  1.0000
