data_image0
_chemical_formula_structural       Zn4O13C44HCNCNCNHCNCNH2CNCNH4CNH4CNH3CNCNCNCNH3CNHCN
_chemical_formula_sum              "Zn4 O13 C59 H19 N15"
_cell_length_a       19.1212
_cell_length_b       18.1014
_cell_length_c       18.1014
_cell_angle_alpha    89.9832
_cell_angle_beta     87.537
_cell_angle_gamma    92.4654

_space_group_name_H-M_alt    "P 1"
_space_group_IT_number       1

loop_
  _space_group_symop_operation_xyz
  'x, y, z'

loop_
  _atom_site_type_symbol
  _atom_site_label
  _atom_site_symmetry_multiplicity
  _atom_site_fract_x
  _atom_site_fract_y
  _atom_site_fract_z
  _atom_site_occupancy
  Zn  Zn1       1.0  0.07373  0.75328  0.53288  1.0000
  Zn  Zn2       1.0  0.07363  0.62945  0.65672  1.0000
  Zn  Zn3       1.0  0.95627  0.74801  0.66200  1.0000
  Zn  Zn4       1.0  0.95623  0.62420  0.53821  1.0000
  O   O1        1.0  0.01496  0.68874  0.59745  1.0000
  O   O2        1.0  0.17200  0.74126  0.54486  1.0000
  O   O3        1.0  0.05804  0.64517  0.76105  1.0000
  O   O4        1.0  0.97191  0.85234  0.64485  1.0000
  O   O5        1.0  0.17193  0.65028  0.63585  1.0000
  O   O6        1.0  0.05821  0.85622  0.54998  1.0000
  O   O7        1.0  0.97182  0.73227  0.76493  1.0000
  O   O8        1.0  0.85798  0.72718  0.65002  1.0000
  O   O9        1.0  0.97183  0.64134  0.43387  1.0000
  O   O10       1.0  0.85794  0.63622  0.55907  1.0000
  O   O11       1.0  0.05816  0.73617  0.42995  1.0000
  O   O12       1.0  0.05799  0.52512  0.64102  1.0000
  O   O13       1.0  0.97174  0.52126  0.55395  1.0000
  C   C1        1.0  0.01487  0.49632  0.59748  1.0000
  C   C2        1.0  0.01489  0.41401  0.59746  1.0000
  C   C3        1.0  0.83248  0.68056  0.60569  1.0000
  C   C4        1.0  0.75441  0.67705  0.60920  1.0000
  C   C5        1.0  0.01505  0.11493  0.59741  1.0000
  C   C6        1.0  0.96090  0.14380  0.54248  1.0000
  C   C7        1.0  0.96065  0.22941  0.54268  1.0000
  C   C8        1.0  0.01497  0.26330  0.59744  1.0000
  C   C9        1.0  0.99493  0.23127  0.67639  1.0000
  C   C10       1.0  0.99458  0.14561  0.67606  1.0000
  C   C11       1.0  0.08935  0.14991  0.57407  1.0000
  C   C12       1.0  0.08891  0.23554  0.57238  1.0000
  C   C13       1.0  0.01493  0.34716  0.59745  1.0000
  C   C14       1.0  0.01509  0.03107  0.59740  1.0000
  C   C15       1.0  0.71777  0.72269  0.56341  1.0000
  C   C16       1.0  0.64442  0.71939  0.56671  1.0000
  C   C17       1.0  0.60770  0.67044  0.61581  1.0000
  C   C18       1.0  0.64435  0.62480  0.66161  1.0000
  C   C19       1.0  0.71770  0.62810  0.65831  1.0000
  C   C20       1.0  0.38622  0.65810  0.62815  1.0000
  C   C21       1.0  0.31287  0.65480  0.63144  1.0000
  C   C22       1.0  0.31294  0.74939  0.53655  1.0000
  C   C23       1.0  0.38630  0.75269  0.53325  1.0000
  C   C24       1.0  0.42293  0.70705  0.57905  1.0000
  C   C25       1.0  0.53272  0.66707  0.61918  1.0000
  C   C26       1.0  0.49791  0.71043  0.57568  1.0000
  C   C27       1.0  0.19816  0.69694  0.58918  1.0000
  C   C28       1.0  0.27623  0.70044  0.58565  1.0000
  C   C29       1.0  0.01500  0.68876  0.40429  1.0000
  C   C30       1.0  0.01502  0.68877  0.32197  1.0000
  C   C31       1.0  0.01508  0.88190  0.59741  1.0000
  C   C32       1.0  0.01513  0.96422  0.59739  1.0000
  C   C33       1.0  0.01506  0.68891  0.02288  1.0000
  C   C34       1.0  0.96056  0.62941  0.05668  1.0000
  C   C35       1.0  0.96071  0.62916  0.14229  1.0000
  C   C36       1.0  0.01504  0.68884  0.17126  1.0000
  C   C37       1.0  0.08904  0.67097  0.13683  1.0000
  C   C38       1.0  0.08874  0.67059  0.05120  1.0000
  C   C39       1.0  0.99621  0.76642  0.05531  1.0000
  C   C40       1.0  0.99456  0.76589  0.14103  1.0000
  C   C41       1.0  0.01503  0.68880  0.25512  1.0000
  C   C42       1.0  0.01507  0.68894  0.93902  1.0000
  C   C43       1.0  0.01496  0.68877  0.78986  1.0000
  C   C44       1.0  0.01508  0.68898  0.87217  1.0000
  H   H1        1.0  0.97318  0.25102  0.48424  1.0000
  C   C45       1.0  0.11101  0.59540  0.16480  1.0000
  N   N1        1.0  0.12755  0.53847  0.18587  1.0000
  C   C46       1.0  0.75800  0.57789  0.70868  1.0000
  N   N2        1.0  0.78835  0.54008  0.74663  1.0000
  C   C47       1.0  0.75815  0.77653  0.50940  1.0000
  N   N3        1.0  0.78856  0.81709  0.46872  1.0000
  H   H2        1.0  0.13074  0.71309  0.15530  1.0000
  C   C48       1.0  0.88657  0.64374  0.17404  1.0000
  N   N4        1.0  0.83073  0.65472  0.19795  1.0000
  C   C49       1.0  0.92457  0.78927  0.02937  1.0000
  N   N5        1.0  0.87061  0.80648  0.00984  1.0000
  H   H3        1.0  0.94119  0.25024  0.69605  1.0000
  H   H4        1.0  0.90552  0.64007  0.03857  1.0000
  C   C50       1.0  0.97722  0.55217  0.02686  1.0000
  N   N6        1.0  0.98977  0.49399  0.00440  1.0000
  C   C51       1.0  0.92100  0.78419  0.17183  1.0000
  N   N7        1.0  0.86560  0.79798  0.19505  1.0000
  H   H5        1.0  0.28311  0.78655  0.49926  1.0000
  H   H6        1.0  0.12969  0.13148  0.61404  1.0000
  H   H7        1.0  0.97332  0.12380  0.48386  1.0000
  H   H8        1.0  0.61445  0.58495  0.70159  1.0000
  C   C52       1.0  0.88695  0.11133  0.56349  1.0000
  N   N8        1.0  0.83125  0.08688  0.57931  1.0000
  H   H9        1.0  0.90557  0.24736  0.55840  1.0000
  H   H10       1.0  0.41618  0.79254  0.49327  1.0000
  H   H11       1.0  0.52781  0.75028  0.53571  1.0000
  H   H12       1.0  0.13072  0.71222  0.02857  1.0000
  C   C53       1.0  0.60412  0.76959  0.51633  1.0000
  N   N9        1.0  0.57377  0.80741  0.47838  1.0000
  H   H13       1.0  0.03590  0.81070  0.03325  1.0000
  H   H14       1.0  0.97316  0.57163  0.16221  1.0000
  H   H15       1.0  0.94027  0.12313  0.69544  1.0000
  C   C54       1.0  0.11033  0.59417  0.02323  1.0000
  N   N10       1.0  0.12658  0.53661  0.00216  1.0000
  C   C55       1.0  0.04554  0.11991  0.73349  1.0000
  N   N11       1.0  0.08391  0.10057  0.77674  1.0000
  C   C56       1.0  0.04652  0.26112  0.73339  1.0000
  N   N12       1.0  0.08539  0.28360  0.77632  1.0000
  C   C57       1.0  0.49233  0.61323  0.67318  1.0000
  N   N13       1.0  0.46190  0.57267  0.71386  1.0000
  H   H16       1.0  0.03136  0.81230  0.16076  1.0000
  H   H17       1.0  0.28298  0.61494  0.67142  1.0000
  H   H18       1.0  0.10402  0.25657  0.51426  1.0000
  C   C58       1.0  0.11403  0.12190  0.49738  1.0000
  N   N14       1.0  0.13261  0.10080  0.43961  1.0000
  H   H19       1.0  0.41605  0.62094  0.66544  1.0000
  C   C59       1.0  0.14629  0.26705  0.62213  1.0000
  N   N15       1.0  0.18951  0.29078  0.65961  1.0000
