data_image0
_chemical_formula_structural       Zn8O26C68H12F6H2F2H4F2H8F4H2F2H2F6H4F4H10F2
_chemical_formula_sum              "Zn8 O26 C68 H44 F28"
_cell_length_a       12.6453
_cell_length_b       18.1014
_cell_length_c       12.6453
_cell_angle_alpha    89.9717
_cell_angle_beta     89.9773
_cell_angle_gamma    90.0301

_space_group_name_H-M_alt    "P 1"
_space_group_IT_number       1

loop_
  _space_group_symop_operation_xyz
  'x, y, z'

loop_
  _atom_site_type_symbol
  _atom_site_label
  _atom_site_symmetry_multiplicity
  _atom_site_fract_x
  _atom_site_fract_y
  _atom_site_fract_z
  _atom_site_occupancy
  Zn  Zn1       1.0  0.62063  0.70516  0.40058  1.0000
  Zn  Zn2       1.0  0.12063  0.20516  0.90058  1.0000
  Zn  Zn3       1.0  0.62047  0.58131  0.57785  1.0000
  Zn  Zn4       1.0  0.12047  0.08131  0.07785  1.0000
  Zn  Zn5       1.0  0.44335  0.70513  0.57783  1.0000
  Zn  Zn6       1.0  0.94335  0.20513  0.07783  1.0000
  Zn  Zn7       1.0  0.44329  0.58135  0.40063  1.0000
  Zn  Zn8       1.0  0.94329  0.08135  0.90063  1.0000
  O   O1        1.0  0.53194  0.64324  0.48922  1.0000
  O   O2        1.0  0.03194  0.14324  0.98922  1.0000
  O   O3        1.0  0.76896  0.68872  0.42408  1.0000
  O   O4        1.0  0.26896  0.18872  0.92408  1.0000
  O   O5        1.0  0.59694  0.59770  0.72619  1.0000
  O   O6        1.0  0.09694  0.09770  0.22620  1.0000
  O   O7        1.0  0.46696  0.80877  0.55429  1.0000
  O   O8        1.0  0.96696  0.30877  0.05429  1.0000
  O   O9        1.0  0.76884  0.59773  0.55432  1.0000
  O   O10       1.0  0.26884  0.09773  0.05432  1.0000
  O   O11       1.0  0.59721  0.80879  0.42406  1.0000
  O   O12       1.0  0.09721  0.30879  0.92406  1.0000
  O   O13       1.0  0.46680  0.68867  0.72618  1.0000
  O   O14       1.0  0.96680  0.18867  0.22618  1.0000
  O   O15       1.0  0.29499  0.68872  0.55434  1.0000
  O   O16       1.0  0.79499  0.18872  0.05434  1.0000
  O   O17       1.0  0.46685  0.59781  0.25228  1.0000
  O   O18       1.0  0.96685  0.09781  0.75228  1.0000
  O   O19       1.0  0.29495  0.59778  0.42416  1.0000
  O   O20       1.0  0.79495  0.09778  0.92416  1.0000
  O   O21       1.0  0.59715  0.68876  0.25224  1.0000
  O   O22       1.0  0.09715  0.18876  0.75224  1.0000
  O   O23       1.0  0.59688  0.47768  0.55437  1.0000
  O   O24       1.0  0.09688  0.97768  0.05437  1.0000
  O   O25       1.0  0.46670  0.47772  0.42417  1.0000
  O   O26       1.0  0.96670  0.97772  0.92417  1.0000
  C   C1        1.0  0.25650  0.64325  0.48925  1.0000
  C   C2        1.0  0.75651  0.14325  0.98925  1.0000
  C   C3        1.0  0.13868  0.64324  0.48924  1.0000
  C   C4        1.0  0.63868  0.14324  0.98924  1.0000
  C   C5        1.0  0.97110  0.70072  0.57069  1.0000
  C   C6        1.0  0.47110  0.20072  0.07069  1.0000
  C   C7        1.0  0.09366  0.70057  0.57105  1.0000
  C   C8        1.0  0.59366  0.20057  0.07105  1.0000
  C   C9        1.0  0.09413  0.56523  0.51976  1.0000
  C   C10       1.0  0.59413  0.06523  0.01976  1.0000
  C   C11       1.0  0.97153  0.56554  0.52032  1.0000
  C   C12       1.0  0.47153  0.06554  0.02032  1.0000
  C   C13       1.0  0.97153  0.66304  0.37696  1.0000
  C   C14       1.0  0.47153  0.16304  0.87696  1.0000
  C   C15       1.0  0.09414  0.66478  0.37758  1.0000
  C   C16       1.0  0.59414  0.16478  0.87758  1.0000
  C   C17       1.0  0.53179  0.45083  0.48925  1.0000
  C   C18       1.0  0.03179  0.95083  0.98925  1.0000
  C   C19       1.0  0.53183  0.36851  0.48923  1.0000
  C   C20       1.0  0.03183  0.86851  0.98923  1.0000
  C   C21       1.0  0.53206  0.06942  0.48918  1.0000
  C   C22       1.0  0.03206  0.56942  0.98918  1.0000
  C   C23       1.0  0.45035  0.10074  0.40705  1.0000
  C   C24       1.0  0.95035  0.60074  0.90705  1.0000
  C   C25       1.0  0.44996  0.18636  0.40731  1.0000
  C   C26       1.0  0.94996  0.68636  0.90731  1.0000
  C   C27       1.0  0.53195  0.21780  0.48920  1.0000
  C   C28       1.0  0.03195  0.71780  0.98920  1.0000
  C   C29       1.0  0.50169  0.18665  0.60093  1.0000
  C   C30       1.0  0.00169  0.68665  0.10093  1.0000
  C   C31       1.0  0.50117  0.10101  0.60044  1.0000
  C   C32       1.0  0.00117  0.60101  0.10044  1.0000
  C   C33       1.0  0.64421  0.10108  0.46056  1.0000
  C   C34       1.0  0.14421  0.60108  0.96056  1.0000
  C   C35       1.0  0.64355  0.18673  0.45810  1.0000
  C   C36       1.0  0.14355  0.68673  0.95810  1.0000
  C   C37       1.0  0.53188  0.30166  0.48923  1.0000
  C   C38       1.0  0.03188  0.80166  0.98923  1.0000
  C   C39       1.0  0.53212  0.98556  0.48916  1.0000
  C   C40       1.0  0.03212  0.48556  0.98916  1.0000
  C   C41       1.0  0.80844  0.64322  0.48919  1.0000
  C   C42       1.0  0.30844  0.14322  0.98919  1.0000
  C   C43       1.0  0.92627  0.64321  0.48918  1.0000
  C   C44       1.0  0.42627  0.14321  0.98918  1.0000
  C   C45       1.0  0.53201  0.64329  0.21272  1.0000
  C   C46       1.0  0.03201  0.14329  0.71272  1.0000
  C   C47       1.0  0.53205  0.64332  0.09489  1.0000
  C   C48       1.0  0.03205  0.14332  0.59489  1.0000
  C   C49       1.0  0.53211  0.83640  0.48917  1.0000
  C   C50       1.0  0.03211  0.33640  0.98917  1.0000
  C   C51       1.0  0.53218  0.91871  0.48915  1.0000
  C   C52       1.0  0.03218  0.41871  0.98915  1.0000
  C   C53       1.0  0.44983  0.58637  0.92735  1.0000
  C   C54       1.0  0.94983  0.08637  0.42735  1.0000
  C   C55       1.0  0.45004  0.58608  0.04991  1.0000
  C   C56       1.0  0.95004  0.08608  0.54991  1.0000
  C   C57       1.0  0.64374  0.62214  0.05037  1.0000
  C   C58       1.0  0.14374  0.12214  0.55037  1.0000
  C   C59       1.0  0.64329  0.62178  0.92777  1.0000
  C   C60       1.0  0.14329  0.12178  0.42777  1.0000
  C   C61       1.0  0.50363  0.72177  0.92768  1.0000
  C   C62       1.0  0.00363  0.22177  0.42768  1.0000
  C   C63       1.0  0.50114  0.72130  0.05029  1.0000
  C   C64       1.0  0.00114  0.22130  0.55029  1.0000
  C   C65       1.0  0.53192  0.64323  0.76465  1.0000
  C   C66       1.0  0.03192  0.14323  0.26465  1.0000
  C   C67       1.0  0.53209  0.64342  0.88248  1.0000
  C   C68       1.0  0.03209  0.14342  0.38248  1.0000
  H   H1        1.0  0.94187  0.52125  0.46354  1.0000
  H   H2        1.0  0.44187  0.02125  0.96354  1.0000
  H   H3        1.0  0.12328  0.52124  0.46226  1.0000
  H   H4        1.0  0.62328  0.02124  0.96226  1.0000
  H   H5        1.0  0.46843  0.52864  0.89654  1.0000
  H   H6        1.0  0.96843  0.02864  0.39654  1.0000
  H   H7        1.0  0.12326  0.72220  0.35457  1.0000
  H   H8        1.0  0.62326  0.22219  0.85457  1.0000
  H   H9        1.0  0.70668  0.66238  0.07950  1.0000
  H   H10       1.0  0.20668  0.16237  0.57950  1.0000
  H   H11       1.0  0.94025  0.68775  0.65336  1.0000
  H   H12       1.0  0.44025  0.18775  0.15336  1.0000
  F   F1        1.0  0.67582  0.54806  0.09049  1.0000
  F   F2        1.0  0.17582  0.04806  0.59049  1.0000
  F   F3        1.0  0.68026  0.07291  0.35588  1.0000
  F   F4        1.0  0.18026  0.57291  0.85588  1.0000
  F   F5        1.0  0.34236  0.07251  0.43150  1.0000
  F   F6        1.0  0.84236  0.57251  0.93150  1.0000
  H   H13       1.0  0.94254  0.62116  0.31622  1.0000
  H   H14       1.0  0.44254  0.12116  0.81622  1.0000
  F   F7        1.0  0.13419  0.61403  0.29395  1.0000
  F   F8        1.0  0.63419  0.11403  0.79395  1.0000
  H   H15       1.0  0.56355  0.76427  0.89867  1.0000
  H   H16       1.0  0.06355  0.26427  0.39867  1.0000
  H   H17       1.0  0.66741  0.56450  0.89917  1.0000
  H   H18       1.0  0.16741  0.06450  0.39917  1.0000
  F   F9        1.0  0.13193  0.68344  0.67975  1.0000
  F   F10       1.0  0.63193  0.18344  0.17975  1.0000
  H   H19       1.0  0.70666  0.66153  0.89809  1.0000
  H   H20       1.0  0.20666  0.16153  0.39809  1.0000
  H   H21       1.0  0.12478  0.54812  0.60092  1.0000
  H   H22       1.0  0.62478  0.04812  0.10092  1.0000
  H   H23       1.0  0.94065  0.71894  0.34920  1.0000
  H   H24       1.0  0.44065  0.21894  0.84920  1.0000
  H   H25       1.0  0.46889  0.20742  0.32447  1.0000
  H   H26       1.0  0.96889  0.70742  0.82447  1.0000
  F   F11       1.0  0.93262  0.77656  0.54596  1.0000
  F   F12       1.0  0.43262  0.27656  0.04596  1.0000
  F   F13       1.0  0.93408  0.54356  0.62755  1.0000
  F   F14       1.0  0.43408  0.04356  0.12755  1.0000
  H   H27       1.0  0.36722  0.59934  0.08001  1.0000
  H   H28       1.0  0.86722  0.09934  0.58001  1.0000
  F   F15       1.0  0.67337  0.21334  0.35063  1.0000
  F   F16       1.0  0.17337  0.71334  0.85063  1.0000
  H   H29       1.0  0.36684  0.20678  0.42627  1.0000
  H   H30       1.0  0.86684  0.70678  0.92627  1.0000
  F   F17       1.0  0.47484  0.07388  0.29842  1.0000
  F   F18       1.0  0.97484  0.57388  0.79842  1.0000
  F   F19       1.0  0.39370  0.74218  0.08831  1.0000
  F   F20       1.0  0.89370  0.24218  0.58831  1.0000
  F   F21       1.0  0.39402  0.07481  0.63213  1.0000
  F   F22       1.0  0.89402  0.57481  0.13213  1.0000
  H   H31       1.0  0.55810  0.08029  0.66371  1.0000
  H   H32       1.0  0.05810  0.58029  0.16371  1.0000
  H   H33       1.0  0.55934  0.20702  0.66378  1.0000
  H   H34       1.0  0.05934  0.70702  0.16378  1.0000
  F   F23       1.0  0.47464  0.51017  0.08824  1.0000
  F   F24       1.0  0.97464  0.01017  0.58824  1.0000
  F   F25       1.0  0.39903  0.74700  0.88729  1.0000
  F   F26       1.0  0.89903  0.24701  0.38729  1.0000
  H   H35       1.0  0.42058  0.20804  0.62561  1.0000
  H   H36       1.0  0.92058  0.70804  0.12561  1.0000
  H   H37       1.0  0.55668  0.76605  0.08091  1.0000
  H   H38       1.0  0.05668  0.26605  0.58091  1.0000
  H   H39       1.0  0.70765  0.20814  0.51356  1.0000
  H   H40       1.0  0.20765  0.70814  0.01356  1.0000
  H   H41       1.0  0.70509  0.08083  0.52037  1.0000
  H   H42       1.0  0.20509  0.58082  0.02037  1.0000
  H   H43       1.0  0.12378  0.75842  0.55192  1.0000
  H   H44       1.0  0.62378  0.25842  0.05192  1.0000
  F   F27       1.0  0.34124  0.60353  0.88884  1.0000
  F   F28       1.0  0.84124  0.10353  0.38884  1.0000
