data_image0
_chemical_formula_structural       Zn16O52C240H8F4H12F4H4F28H4F4H8F12H8F20H4F8H4F12
_chemical_formula_sum              "Zn16 O52 C240 H52 F92"
_cell_length_a       21.3954
_cell_length_b       21.3954
_cell_length_c       21.3954
_cell_angle_alpha    89.9785
_cell_angle_beta     89.9753
_cell_angle_gamma    90.029

_space_group_name_H-M_alt    "P 1"
_space_group_IT_number       1

loop_
  _space_group_symop_operation_xyz
  'x, y, z'

loop_
  _atom_site_type_symbol
  _atom_site_label
  _atom_site_symmetry_multiplicity
  _atom_site_fract_x
  _atom_site_fract_y
  _atom_site_fract_z
  _atom_site_occupancy
  Zn  Zn1       1.0  0.95786  0.75046  0.64575  1.0000
  Zn  Zn2       1.0  0.20786  0.00046  0.89575  1.0000
  Zn  Zn3       1.0  0.45786  0.25046  0.14575  1.0000
  Zn  Zn4       1.0  0.70786  0.50046  0.39575  1.0000
  Zn  Zn5       1.0  0.95776  0.64570  0.75053  1.0000
  Zn  Zn6       1.0  0.20776  0.89570  0.00053  1.0000
  Zn  Zn7       1.0  0.45776  0.14570  0.25053  1.0000
  Zn  Zn8       1.0  0.70776  0.39570  0.50053  1.0000
  Zn  Zn9       1.0  0.85307  0.75046  0.75051  1.0000
  Zn  Zn10      1.0  0.10307  0.00046  0.00051  1.0000
  Zn  Zn11      1.0  0.35307  0.25046  0.25051  1.0000
  Zn  Zn12      1.0  0.60307  0.50046  0.50051  1.0000
  Zn  Zn13      1.0  0.85304  0.64572  0.64579  1.0000
  Zn  Zn14      1.0  0.10304  0.89572  0.89579  1.0000
  Zn  Zn15      1.0  0.35304  0.14572  0.14579  1.0000
  Zn  Zn16      1.0  0.60304  0.39572  0.39579  1.0000
  O   O1        1.0  0.90543  0.69809  0.69815  1.0000
  O   O2        1.0  0.15543  0.94809  0.94815  1.0000
  O   O3        1.0  0.40543  0.19809  0.19815  1.0000
  O   O4        1.0  0.65543  0.44809  0.44815  1.0000
  O   O5        1.0  0.04552  0.73656  0.65964  1.0000
  O   O6        1.0  0.29552  0.98655  0.90964  1.0000
  O   O7        1.0  0.54552  0.23655  0.15964  1.0000
  O   O8        1.0  0.79552  0.48655  0.40964  1.0000
  O   O9        1.0  0.94385  0.65959  0.83821  1.0000
  O   O10       1.0  0.19385  0.90959  0.08821  1.0000
  O   O11       1.0  0.44385  0.15959  0.33821  1.0000
  O   O12       1.0  0.69385  0.40959  0.58821  1.0000
  O   O13       1.0  0.86703  0.83814  0.73659  1.0000
  O   O14       1.0  0.11703  0.08814  0.98659  1.0000
  O   O15       1.0  0.36703  0.33814  0.23659  1.0000
  O   O16       1.0  0.61703  0.58814  0.48659  1.0000
  O   O17       1.0  0.04545  0.65959  0.73662  1.0000
  O   O18       1.0  0.29545  0.90959  0.98662  1.0000
  O   O19       1.0  0.54545  0.15959  0.23662  1.0000
  O   O20       1.0  0.79545  0.40959  0.48662  1.0000
  O   O21       1.0  0.94401  0.83814  0.65962  1.0000
  O   O22       1.0  0.19401  0.08814  0.90962  1.0000
  O   O23       1.0  0.44401  0.33814  0.15962  1.0000
  O   O24       1.0  0.69401  0.58814  0.40962  1.0000
  O   O25       1.0  0.86693  0.73656  0.83819  1.0000
  O   O26       1.0  0.11693  0.98656  0.08819  1.0000
  O   O27       1.0  0.36693  0.23656  0.33819  1.0000
  O   O28       1.0  0.61693  0.48656  0.58819  1.0000
  O   O29       1.0  0.76539  0.73658  0.73663  1.0000
  O   O30       1.0  0.01539  0.98658  0.98663  1.0000
  O   O31       1.0  0.26539  0.23658  0.23663  1.0000
  O   O32       1.0  0.51539  0.48658  0.48663  1.0000
  O   O33       1.0  0.86698  0.65962  0.55811  1.0000
  O   O34       1.0  0.11698  0.90962  0.80811  1.0000
  O   O35       1.0  0.36698  0.15962  0.05811  1.0000
  O   O36       1.0  0.61697  0.40962  0.30811  1.0000
  O   O37       1.0  0.76537  0.65962  0.65969  1.0000
  O   O38       1.0  0.01537  0.90962  0.90969  1.0000
  O   O39       1.0  0.26537  0.15962  0.15969  1.0000
  O   O40       1.0  0.51537  0.40962  0.40969  1.0000
  O   O41       1.0  0.94398  0.73657  0.55808  1.0000
  O   O42       1.0  0.19398  0.98657  0.80808  1.0000
  O   O43       1.0  0.44398  0.23657  0.05808  1.0000
  O   O44       1.0  0.69398  0.48657  0.30808  1.0000
  O   O45       1.0  0.94382  0.55803  0.73666  1.0000
  O   O46       1.0  0.19382  0.80803  0.98666  1.0000
  O   O47       1.0  0.44382  0.05803  0.23666  1.0000
  O   O48       1.0  0.69382  0.30803  0.48666  1.0000
  O   O49       1.0  0.86688  0.55804  0.65971  1.0000
  O   O50       1.0  0.11688  0.80804  0.90971  1.0000
  O   O51       1.0  0.36688  0.05804  0.15971  1.0000
  O   O52       1.0  0.61688  0.30804  0.40971  1.0000
  C   C1        1.0  0.74265  0.69810  0.69816  1.0000
  C   C2        1.0  0.99265  0.94810  0.94816  1.0000
  C   C3        1.0  0.24265  0.19810  0.19816  1.0000
  C   C4        1.0  0.49265  0.44810  0.44816  1.0000
  C   C5        1.0  0.67301  0.69810  0.69816  1.0000
  C   C6        1.0  0.92301  0.94810  0.94816  1.0000
  C   C7        1.0  0.17301  0.19809  0.19816  1.0000
  C   C8        1.0  0.42301  0.44810  0.44816  1.0000
  C   C9        1.0  0.90535  0.53530  0.69818  1.0000
  C   C10       1.0  0.15535  0.78530  0.94818  1.0000
  C   C11       1.0  0.40535  0.03530  0.19818  1.0000
  C   C12       1.0  0.65535  0.28530  0.44818  1.0000
  C   C13       1.0  0.90537  0.46566  0.69817  1.0000
  C   C14       1.0  0.15537  0.71566  0.94817  1.0000
  C   C15       1.0  0.40537  0.96566  0.19817  1.0000
  C   C16       1.0  0.65537  0.21566  0.44817  1.0000
  C   C17       1.0  0.17121  0.65794  0.65812  1.0000
  C   C18       1.0  0.42121  0.90794  0.90812  1.0000
  C   C19       1.0  0.67121  0.15794  0.15812  1.0000
  C   C20       1.0  0.92121  0.40794  0.40812  1.0000
  C   C21       1.0  0.23665  0.65794  0.65813  1.0000
  C   C22       1.0  0.48665  0.90794  0.90813  1.0000
  C   C23       1.0  0.73665  0.15794  0.15813  1.0000
  C   C24       1.0  0.98665  0.40794  0.40813  1.0000
  C   C25       1.0  0.26937  0.69807  0.69813  1.0000
  C   C26       1.0  0.51937  0.94807  0.94813  1.0000
  C   C27       1.0  0.76937  0.19807  0.19813  1.0000
  C   C28       1.0  0.01937  0.44807  0.44813  1.0000
  C   C29       1.0  0.23664  0.73819  0.73813  1.0000
  C   C30       1.0  0.48664  0.98819  0.98813  1.0000
  C   C31       1.0  0.73664  0.23819  0.23813  1.0000
  C   C32       1.0  0.98664  0.48819  0.48813  1.0000
  C   C33       1.0  0.17121  0.73819  0.73813  1.0000
  C   C34       1.0  0.42121  0.98819  0.98813  1.0000
  C   C35       1.0  0.67121  0.23819  0.23813  1.0000
  C   C36       1.0  0.92121  0.48819  0.48813  1.0000
  C   C37       1.0  0.37306  0.75454  0.70298  1.0000
  C   C38       1.0  0.62306  0.00454  0.95297  1.0000
  C   C39       1.0  0.87306  0.25454  0.20297  1.0000
  C   C40       1.0  0.12306  0.50454  0.45297  1.0000
  C   C41       1.0  0.43849  0.75454  0.70297  1.0000
  C   C42       1.0  0.68849  0.00455  0.95297  1.0000
  C   C43       1.0  0.93849  0.25455  0.20297  1.0000
  C   C44       1.0  0.18849  0.50455  0.45297  1.0000
  C   C45       1.0  0.47119  0.69809  0.69814  1.0000
  C   C46       1.0  0.72119  0.94809  0.94814  1.0000
  C   C47       1.0  0.97119  0.19809  0.19814  1.0000
  C   C48       1.0  0.22119  0.44809  0.44814  1.0000
  C   C49       1.0  0.43845  0.64163  0.69329  1.0000
  C   C50       1.0  0.68845  0.89163  0.94329  1.0000
  C   C51       1.0  0.93845  0.14163  0.19329  1.0000
  C   C52       1.0  0.18845  0.39163  0.44329  1.0000
  C   C53       1.0  0.37301  0.64162  0.69329  1.0000
  C   C54       1.0  0.62301  0.89162  0.94329  1.0000
  C   C55       1.0  0.87301  0.14162  0.19329  1.0000
  C   C56       1.0  0.12301  0.39162  0.44329  1.0000
  C   C57       1.0  0.34032  0.69808  0.69813  1.0000
  C   C58       1.0  0.59032  0.94808  0.94813  1.0000
  C   C59       1.0  0.84032  0.19808  0.19813  1.0000
  C   C60       1.0  0.09032  0.44808  0.44814  1.0000
  C   C61       1.0  0.57486  0.65797  0.65815  1.0000
  C   C62       1.0  0.82486  0.90797  0.90815  1.0000
  C   C63       1.0  0.07486  0.15797  0.15815  1.0000
  C   C64       1.0  0.32486  0.40797  0.40815  1.0000
  C   C65       1.0  0.64029  0.65797  0.65816  1.0000
  C   C66       1.0  0.89029  0.90797  0.90816  1.0000
  C   C67       1.0  0.14029  0.15797  0.15816  1.0000
  C   C68       1.0  0.39029  0.40797  0.40816  1.0000
  C   C69       1.0  0.64029  0.73822  0.73816  1.0000
  C   C70       1.0  0.89029  0.98822  0.98816  1.0000
  C   C71       1.0  0.14029  0.23822  0.23816  1.0000
  C   C72       1.0  0.39029  0.48822  0.48816  1.0000
  C   C73       1.0  0.57485  0.73822  0.73815  1.0000
  C   C74       1.0  0.82485  0.98822  0.98815  1.0000
  C   C75       1.0  0.07485  0.23822  0.23815  1.0000
  C   C76       1.0  0.32485  0.48822  0.48815  1.0000
  C   C77       1.0  0.54214  0.69809  0.69814  1.0000
  C   C78       1.0  0.79214  0.94809  0.94814  1.0000
  C   C79       1.0  0.04214  0.19809  0.19814  1.0000
  C   C80       1.0  0.29214  0.44809  0.44814  1.0000
  C   C81       1.0  0.94547  0.43296  0.73820  1.0000
  C   C82       1.0  0.19547  0.68296  0.98820  1.0000
  C   C83       1.0  0.44547  0.93296  0.23820  1.0000
  C   C84       1.0  0.69547  0.18296  0.48820  1.0000
  C   C85       1.0  0.94550  0.36752  0.73819  1.0000
  C   C86       1.0  0.19550  0.61752  0.98819  1.0000
  C   C87       1.0  0.44550  0.86752  0.23819  1.0000
  C   C88       1.0  0.69550  0.11752  0.48819  1.0000
  C   C89       1.0  0.90542  0.33479  0.69815  1.0000
  C   C90       1.0  0.15542  0.58479  0.94815  1.0000
  C   C91       1.0  0.40542  0.83479  0.19815  1.0000
  C   C92       1.0  0.65542  0.08479  0.44815  1.0000
  C   C93       1.0  0.86532  0.36750  0.65812  1.0000
  C   C94       1.0  0.11532  0.61750  0.90812  1.0000
  C   C95       1.0  0.36532  0.86750  0.15812  1.0000
  C   C96       1.0  0.61532  0.11750  0.40812  1.0000
  C   C97       1.0  0.86530  0.43293  0.65813  1.0000
  C   C98       1.0  0.11530  0.68293  0.90813  1.0000
  C   C99       1.0  0.36530  0.93293  0.15813  1.0000
  C   C100      1.0  0.61530  0.18293  0.40813  1.0000
  C   C101      1.0  0.84901  0.23108  0.69324  1.0000
  C   C102      1.0  0.09901  0.48108  0.94324  1.0000
  C   C103      1.0  0.34901  0.73108  0.19324  1.0000
  C   C104      1.0  0.59901  0.98108  0.44324  1.0000
  C   C105      1.0  0.84903  0.16564  0.69324  1.0000
  C   C106      1.0  0.09903  0.41564  0.94324  1.0000
  C   C107      1.0  0.34903  0.66564  0.19324  1.0000
  C   C108      1.0  0.59903  0.91564  0.44324  1.0000
  C   C109      1.0  0.90549  0.13297  0.69812  1.0000
  C   C110      1.0  0.15549  0.38297  0.94812  1.0000
  C   C111      1.0  0.40549  0.63297  0.19812  1.0000
  C   C112      1.0  0.65549  0.88297  0.44812  1.0000
  C   C113      1.0  0.96194  0.16573  0.70302  1.0000
  C   C114      1.0  0.21194  0.41573  0.95302  1.0000
  C   C115      1.0  0.46194  0.66573  0.20302  1.0000
  C   C116      1.0  0.71194  0.91573  0.45302  1.0000
  C   C117      1.0  0.96191  0.23117  0.70303  1.0000
  C   C118      1.0  0.21192  0.48117  0.95303  1.0000
  C   C119      1.0  0.46192  0.73117  0.20303  1.0000
  C   C120      1.0  0.71191  0.98117  0.45303  1.0000
  C   C121      1.0  0.90544  0.26384  0.69814  1.0000
  C   C122      1.0  0.15544  0.51384  0.94814  1.0000
  C   C123      1.0  0.40544  0.76384  0.19814  1.0000
  C   C124      1.0  0.65544  0.01384  0.44814  1.0000
  C   C125      1.0  0.94563  0.02932  0.73813  1.0000
  C   C126      1.0  0.19562  0.27932  0.98813  1.0000
  C   C127      1.0  0.44562  0.52932  0.23813  1.0000
  C   C128      1.0  0.69562  0.77932  0.48813  1.0000
  C   C129      1.0  0.94566  0.96388  0.73811  1.0000
  C   C130      1.0  0.19565  0.21388  0.98811  1.0000
  C   C131      1.0  0.44565  0.46388  0.23811  1.0000
  C   C132      1.0  0.69565  0.71388  0.48811  1.0000
  C   C133      1.0  0.86547  0.96386  0.65804  1.0000
  C   C134      1.0  0.11547  0.21386  0.90804  1.0000
  C   C135      1.0  0.36547  0.46386  0.15804  1.0000
  C   C136      1.0  0.61547  0.71386  0.40804  1.0000
  C   C137      1.0  0.86545  0.02929  0.65806  1.0000
  C   C138      1.0  0.11545  0.27929  0.90806  1.0000
  C   C139      1.0  0.36545  0.52929  0.15806  1.0000
  C   C140      1.0  0.61545  0.77929  0.40806  1.0000
  C   C141      1.0  0.90552  0.06202  0.69811  1.0000
  C   C142      1.0  0.15552  0.31202  0.94811  1.0000
  C   C143      1.0  0.40552  0.56202  0.19811  1.0000
  C   C144      1.0  0.65552  0.81202  0.44811  1.0000
  C   C145      1.0  0.06886  0.69807  0.69813  1.0000
  C   C146      1.0  0.31886  0.94807  0.94813  1.0000
  C   C147      1.0  0.56886  0.19807  0.19813  1.0000
  C   C148      1.0  0.81886  0.44807  0.44813  1.0000
  C   C149      1.0  0.13850  0.69806  0.69812  1.0000
  C   C150      1.0  0.38850  0.94806  0.94812  1.0000
  C   C151      1.0  0.63850  0.19806  0.19812  1.0000
  C   C152      1.0  0.88850  0.44806  0.44812  1.0000
  C   C153      1.0  0.90549  0.69810  0.53472  1.0000
  C   C154      1.0  0.15549  0.94810  0.78472  1.0000
  C   C155      1.0  0.40549  0.19810  0.03472  1.0000
  C   C156      1.0  0.65549  0.44810  0.28472  1.0000
  C   C157      1.0  0.90551  0.69810  0.46508  1.0000
  C   C158      1.0  0.15551  0.94810  0.71508  1.0000
  C   C159      1.0  0.40551  0.19810  0.96508  1.0000
  C   C160      1.0  0.65551  0.44810  0.21508  1.0000
  C   C161      1.0  0.90553  0.86151  0.69810  1.0000
  C   C162      1.0  0.15553  0.11151  0.94810  1.0000
  C   C163      1.0  0.40553  0.36151  0.19810  1.0000
  C   C164      1.0  0.65553  0.61151  0.44810  1.0000
  C   C165      1.0  0.90558  0.93115  0.69808  1.0000
  C   C166      1.0  0.15558  0.18115  0.94808  1.0000
  C   C167      1.0  0.40558  0.43115  0.19808  1.0000
  C   C168      1.0  0.65558  0.68115  0.44808  1.0000
  C   C169      1.0  0.94560  0.73818  0.43235  1.0000
  C   C170      1.0  0.19561  0.98818  0.68235  1.0000
  C   C171      1.0  0.44561  0.23818  0.93235  1.0000
  C   C172      1.0  0.69561  0.48818  0.18235  1.0000
  C   C173      1.0  0.94560  0.73820  0.36691  1.0000
  C   C174      1.0  0.19560  0.98820  0.61691  1.0000
  C   C175      1.0  0.44560  0.23820  0.86691  1.0000
  C   C176      1.0  0.69560  0.48820  0.11692  1.0000
  C   C177      1.0  0.90551  0.69815  0.33421  1.0000
  C   C178      1.0  0.15551  0.94815  0.58421  1.0000
  C   C179      1.0  0.40551  0.19815  0.83421  1.0000
  C   C180      1.0  0.65551  0.44815  0.08421  1.0000
  C   C181      1.0  0.86541  0.65807  0.36695  1.0000
  C   C182      1.0  0.11541  0.90807  0.61695  1.0000
  C   C183      1.0  0.36541  0.15807  0.86695  1.0000
  C   C184      1.0  0.61541  0.40807  0.11695  1.0000
  C   C185      1.0  0.86541  0.65805  0.43239  1.0000
  C   C186      1.0  0.11541  0.90805  0.68239  1.0000
  C   C187      1.0  0.36541  0.15805  0.93239  1.0000
  C   C188      1.0  0.61541  0.40805  0.18239  1.0000
  C   C189      1.0  0.90054  0.64173  0.23055  1.0000
  C   C190      1.0  0.15054  0.89173  0.48055  1.0000
  C   C191      1.0  0.40054  0.14173  0.73055  1.0000
  C   C192      1.0  0.65054  0.39173  0.98055  1.0000
  C   C193      1.0  0.90054  0.64175  0.16512  1.0000
  C   C194      1.0  0.15054  0.89175  0.41512  1.0000
  C   C195      1.0  0.40054  0.14175  0.66512  1.0000
  C   C196      1.0  0.65054  0.39175  0.91512  1.0000
  C   C197      1.0  0.90552  0.69821  0.13239  1.0000
  C   C198      1.0  0.15552  0.94821  0.38239  1.0000
  C   C199      1.0  0.40552  0.19821  0.63239  1.0000
  C   C200      1.0  0.65552  0.44821  0.88239  1.0000
  C   C201      1.0  0.91050  0.75466  0.16511  1.0000
  C   C202      1.0  0.16050  0.00466  0.41511  1.0000
  C   C203      1.0  0.41050  0.25466  0.66511  1.0000
  C   C204      1.0  0.66050  0.50466  0.91511  1.0000
  C   C205      1.0  0.91049  0.75463  0.23054  1.0000
  C   C206      1.0  0.16049  0.00464  0.48054  1.0000
  C   C207      1.0  0.41049  0.25464  0.73054  1.0000
  C   C208      1.0  0.66049  0.50463  0.98054  1.0000
  C   C209      1.0  0.90551  0.69817  0.26326  1.0000
  C   C210      1.0  0.15551  0.94817  0.51326  1.0000
  C   C211      1.0  0.40551  0.19817  0.76326  1.0000
  C   C212      1.0  0.65551  0.44817  0.01326  1.0000
  C   C213      1.0  0.94561  0.73832  0.02871  1.0000
  C   C214      1.0  0.19562  0.98832  0.27871  1.0000
  C   C215      1.0  0.44562  0.23832  0.52871  1.0000
  C   C216      1.0  0.69562  0.48832  0.77871  1.0000
  C   C217      1.0  0.94561  0.73835  0.96327  1.0000
  C   C218      1.0  0.19561  0.98834  0.21327  1.0000
  C   C219      1.0  0.44561  0.23834  0.46327  1.0000
  C   C220      1.0  0.69561  0.48834  0.71327  1.0000
  C   C221      1.0  0.86542  0.65821  0.96331  1.0000
  C   C222      1.0  0.11542  0.90821  0.21331  1.0000
  C   C223      1.0  0.36542  0.15821  0.46331  1.0000
  C   C224      1.0  0.61542  0.40821  0.71331  1.0000
  C   C225      1.0  0.86542  0.65819  0.02875  1.0000
  C   C226      1.0  0.11542  0.90819  0.27875  1.0000
  C   C227      1.0  0.36542  0.15819  0.52875  1.0000
  C   C228      1.0  0.61542  0.40819  0.77874  1.0000
  C   C229      1.0  0.90552  0.69824  0.06144  1.0000
  C   C230      1.0  0.15552  0.94824  0.31144  1.0000
  C   C231      1.0  0.40552  0.19824  0.56144  1.0000
  C   C232      1.0  0.65552  0.44824  0.81144  1.0000
  C   C233      1.0  0.90542  0.69812  0.86093  1.0000
  C   C234      1.0  0.15542  0.94812  0.11093  1.0000
  C   C235      1.0  0.40542  0.19812  0.36093  1.0000
  C   C236      1.0  0.65542  0.44812  0.61093  1.0000
  C   C237      1.0  0.90552  0.69829  0.93058  1.0000
  C   C238      1.0  0.15552  0.94829  0.18057  1.0000
  C   C239      1.0  0.40552  0.19829  0.43057  1.0000
  C   C240      1.0  0.65552  0.44829  0.68058  1.0000
  H   H1        1.0  0.14458  0.62527  0.62555  1.0000
  H   H2        1.0  0.39458  0.87527  0.87555  1.0000
  H   H3        1.0  0.64458  0.12527  0.12555  1.0000
  H   H4        1.0  0.89458  0.37527  0.37555  1.0000
  H   H5        1.0  0.83279  0.05592  0.62547  1.0000
  H   H6        1.0  0.08279  0.30592  0.87547  1.0000
  H   H7        1.0  0.33279  0.55592  0.12547  1.0000
  H   H8        1.0  0.58280  0.80592  0.37547  1.0000
  F   F1        1.0  0.98828  0.78081  0.46714  1.0000
  F   F2        1.0  0.23828  0.03081  0.71714  1.0000
  F   F3        1.0  0.48828  0.28081  0.96714  1.0000
  F   F4        1.0  0.73828  0.53081  0.21714  1.0000
  H   H9        1.0  0.80307  0.13897  0.68926  1.0000
  H   H10       1.0  0.05307  0.38897  0.93925  1.0000
  H   H11       1.0  0.30307  0.63897  0.18926  1.0000
  H   H12       1.0  0.55307  0.88897  0.43925  1.0000
  H   H13       1.0  0.46507  0.59566  0.68935  1.0000
  H   H14       1.0  0.71507  0.84566  0.93935  1.0000
  H   H15       1.0  0.96507  0.09566  0.18935  1.0000
  H   H16       1.0  0.21507  0.34565  0.43935  1.0000
  H   H17       1.0  0.80302  0.25767  0.68927  1.0000
  H   H18       1.0  0.05302  0.50767  0.93927  1.0000
  H   H19       1.0  0.30302  0.75767  0.18927  1.0000
  H   H20       1.0  0.55302  0.00767  0.43927  1.0000
  F   F5        1.0  0.27147  0.61524  0.61556  1.0000
  F   F6        1.0  0.52147  0.86524  0.86556  1.0000
  F   F7        1.0  0.77147  0.11524  0.11556  1.0000
  F   F8        1.0  0.02147  0.36524  0.36556  1.0000
  H   H21       1.0  0.83269  0.34084  0.62552  1.0000
  H   H22       1.0  0.08269  0.59084  0.87552  1.0000
  H   H23       1.0  0.33269  0.84084  0.12552  1.0000
  H   H24       1.0  0.58269  0.09084  0.37552  1.0000
  F   F9        1.0  0.98813  0.46778  0.78082  1.0000
  F   F10       1.0  0.23813  0.71778  0.03082  1.0000
  F   F11       1.0  0.48813  0.96778  0.28082  1.0000
  F   F12       1.0  0.73813  0.21778  0.53082  1.0000
  F   F13       1.0  0.82275  0.61554  0.06358  1.0000
  F   F14       1.0  0.07275  0.86554  0.31358  1.0000
  F   F15       1.0  0.32275  0.11554  0.56358  1.0000
  F   F16       1.0  0.57275  0.36554  0.81358  1.0000
  F   F17       1.0  0.47333  0.81464  0.70812  1.0000
  F   F18       1.0  0.72333  0.06464  0.95812  1.0000
  F   F19       1.0  0.97333  0.31464  0.20812  1.0000
  F   F20       1.0  0.22333  0.56464  0.45812  1.0000
  F   F21       1.0  0.27147  0.78090  0.78070  1.0000
  F   F22       1.0  0.52147  0.03090  0.03070  1.0000
  F   F23       1.0  0.77147  0.28090  0.28070  1.0000
  F   F24       1.0  0.02147  0.53090  0.53070  1.0000
  F   F25       1.0  0.91579  0.81475  0.13028  1.0000
  F   F26       1.0  0.16579  0.06475  0.38028  1.0000
  F   F27       1.0  0.41579  0.31475  0.63028  1.0000
  F   F28       1.0  0.66579  0.56475  0.88028  1.0000
  F   F29       1.0  0.54004  0.61526  0.61557  1.0000
  F   F30       1.0  0.79004  0.86526  0.86557  1.0000
  F   F31       1.0  0.04004  0.11526  0.11557  1.0000
  F   F32       1.0  0.29004  0.36526  0.36557  1.0000
  F   F33       1.0  0.82274  0.61545  0.33215  1.0000
  F   F34       1.0  0.07274  0.86545  0.58215  1.0000
  F   F35       1.0  0.32274  0.11545  0.83215  1.0000
  F   F36       1.0  0.57274  0.36545  0.08215  1.0000
  H   H25       1.0  0.66692  0.77090  0.77072  1.0000
  H   H26       1.0  0.91692  0.02090  0.02072  1.0000
  H   H27       1.0  0.16692  0.27090  0.27072  1.0000
  H   H28       1.0  0.41692  0.52090  0.52072  1.0000
  F   F37       1.0  0.33817  0.58153  0.68814  1.0000
  F   F38       1.0  0.58817  0.83153  0.93814  1.0000
  F   F39       1.0  0.83817  0.08153  0.18814  1.0000
  F   F40       1.0  0.08817  0.33153  0.43814  1.0000
  H   H29       1.0  0.83265  0.45956  0.62553  1.0000
  H   H30       1.0  0.08265  0.70956  0.87553  1.0000
  H   H31       1.0  0.33265  0.95956  0.12553  1.0000
  H   H32       1.0  0.58265  0.20956  0.37553  1.0000
  H   H33       1.0  0.34644  0.80051  0.70692  1.0000
  H   H34       1.0  0.59644  0.05051  0.95692  1.0000
  H   H35       1.0  0.84644  0.30051  0.20692  1.0000
  H   H36       1.0  0.09644  0.55051  0.45692  1.0000
  F   F41       1.0  0.98829  0.78095  0.06351  1.0000
  F   F42       1.0  0.23829  0.03095  0.31351  1.0000
  F   F43       1.0  0.48829  0.28095  0.56351  1.0000
  F   F44       1.0  0.73829  0.53095  0.81351  1.0000
  F   F45       1.0  0.02204  0.13097  0.70821  1.0000
  F   F46       1.0  0.27204  0.38097  0.95821  1.0000
  F   F47       1.0  0.52204  0.63097  0.20821  1.0000
  F   F48       1.0  0.77204  0.88097  0.45821  1.0000
  F   F49       1.0  0.13639  0.78089  0.78070  1.0000
  F   F50       1.0  0.38639  0.03089  0.03070  1.0000
  F   F51       1.0  0.63639  0.28089  0.28070  1.0000
  F   F52       1.0  0.88639  0.53089  0.53070  1.0000
  H   H37       1.0  0.66693  0.62529  0.62559  1.0000
  H   H38       1.0  0.91693  0.87529  0.87559  1.0000
  H   H39       1.0  0.16693  0.12529  0.12559  1.0000
  H   H40       1.0  0.41693  0.37529  0.37559  1.0000
  H   H41       1.0  0.97815  0.34089  0.77078  1.0000
  H   H42       1.0  0.22815  0.59089  0.02078  1.0000
  H   H43       1.0  0.47815  0.84089  0.27078  1.0000
  H   H44       1.0  0.72815  0.09089  0.52078  1.0000
  F   F53       1.0  0.91579  0.81470  0.26536  1.0000
  F   F54       1.0  0.16579  0.06470  0.51536  1.0000
  F   F55       1.0  0.41579  0.31470  0.76536  1.0000
  F   F56       1.0  0.66579  0.56470  0.01536  1.0000
  F   F57       1.0  0.98827  0.78086  0.33207  1.0000
  F   F58       1.0  0.23827  0.03086  0.58207  1.0000
  F   F59       1.0  0.48827  0.28086  0.83207  1.0000
  F   F60       1.0  0.73827  0.53086  0.08207  1.0000
  F   F61       1.0  0.98830  0.78099  0.92844  1.0000
  F   F62       1.0  0.23829  0.03099  0.17844  1.0000
  F   F63       1.0  0.48829  0.28099  0.42844  1.0000
  F   F64       1.0  0.73829  0.53099  0.67844  1.0000
  F   F65       1.0  0.82282  0.92902  0.61543  1.0000
  F   F66       1.0  0.07282  0.17902  0.86543  1.0000
  F   F67       1.0  0.32282  0.42902  0.11543  1.0000
  F   F68       1.0  0.57282  0.67902  0.36543  1.0000
  F   F69       1.0  0.82275  0.61559  0.92851  1.0000
  F   F70       1.0  0.07275  0.86559  0.17851  1.0000
  F   F71       1.0  0.32275  0.11558  0.42851  1.0000
  F   F72       1.0  0.57275  0.36558  0.67851  1.0000
  H   H45       1.0  0.54821  0.77089  0.77072  1.0000
  H   H46       1.0  0.79821  0.02089  0.02072  1.0000
  H   H47       1.0  0.04821  0.27089  0.27072  1.0000
  H   H48       1.0  0.29821  0.52089  0.52072  1.0000
  F   F73       1.0  0.89525  0.58168  0.13031  1.0000
  F   F74       1.0  0.14525  0.83168  0.38031  1.0000
  F   F75       1.0  0.39525  0.08168  0.63031  1.0000
  F   F76       1.0  0.64525  0.33168  0.88030  1.0000
  F   F77       1.0  0.02198  0.26604  0.70824  1.0000
  F   F78       1.0  0.27198  0.51604  0.95824  1.0000
  F   F79       1.0  0.52198  0.76604  0.20824  1.0000
  F   F80       1.0  0.77198  0.01604  0.45824  1.0000
  H   H49       1.0  0.89632  0.59577  0.25719  1.0000
  H   H50       1.0  0.14632  0.84577  0.50719  1.0000
  H   H51       1.0  0.39632  0.09577  0.75719  1.0000
  H   H52       1.0  0.64632  0.34577  0.00719  1.0000
  F   F81       1.0  0.98827  0.06415  0.78075  1.0000
  F   F82       1.0  0.23828  0.31415  0.03075  1.0000
  F   F83       1.0  0.48828  0.56415  0.28075  1.0000
  F   F84       1.0  0.73828  0.81415  0.53075  1.0000
  F   F85       1.0  0.82273  0.61540  0.46722  1.0000
  F   F86       1.0  0.07273  0.86540  0.71722  1.0000
  F   F87       1.0  0.32273  0.11540  0.96722  1.0000
  F   F88       1.0  0.57273  0.36540  0.21722  1.0000
  F   F89       1.0  0.98834  0.92908  0.78071  1.0000
  F   F90       1.0  0.23834  0.17908  0.03071  1.0000
  F   F91       1.0  0.48834  0.42908  0.28071  1.0000
  F   F92       1.0  0.73834  0.67908  0.53071  1.0000
