data_image0
_chemical_formula_structural       ZrO12Zr5O20C96HNH5NH3NH4NH3NH3NH3NH4NH2NH4NH5NH3NH5NH2NH3NH3NH2NH3NH3NH2NH2NH2NH2NH5NH2NH4NH3NH2NH5NH2NH3NH2
_chemical_formula_sum              "Zr6 O32 C96 H97 N31"
_cell_length_a       19.9024
_cell_length_b       23.1964
_cell_length_c       23.1964
_cell_angle_alpha    60.0088
_cell_angle_beta     90.0145
_cell_angle_gamma    59.9975

_space_group_name_H-M_alt    "P 1"
_space_group_IT_number       1

loop_
  _space_group_symop_operation_xyz
  'x, y, z'

loop_
  _atom_site_type_symbol
  _atom_site_label
  _atom_site_symmetry_multiplicity
  _atom_site_fract_x
  _atom_site_fract_y
  _atom_site_fract_z
  _atom_site_occupancy
  Zr  Zr1       1.0  0.64732  0.63093  0.92442  1.0000
  O   O1        1.0  0.54001  0.75121  0.83236  1.0000
  O   O2        1.0  0.68021  0.51066  0.95263  1.0000
  O   O3        1.0  0.68019  0.63093  0.83237  1.0000
  O   O4        1.0  0.54006  0.63094  0.04750  1.0000
  O   O5        1.0  0.79076  0.63092  0.83238  1.0000
  O   O6        1.0  0.54004  0.63094  0.95263  1.0000
  O   O7        1.0  0.79082  0.41578  0.04751  1.0000
  O   O8        1.0  0.54001  0.84608  0.83237  1.0000
  O   O9        1.0  0.77677  0.56012  0.96468  1.0000
  O   O10       1.0  0.69427  0.56013  0.03547  1.0000
  O   O11       1.0  0.69423  0.70173  0.89388  1.0000
  O   O12       1.0  0.61173  0.70173  0.96467  1.0000
  Zr  Zr2       1.0  0.82372  0.63091  0.07574  1.0000
  Zr  Zr3       1.0  0.82368  0.63092  0.92443  1.0000
  Zr  Zr4       1.0  0.64736  0.63093  0.07573  1.0000
  Zr  Zr5       1.0  0.64732  0.78224  0.92442  1.0000
  Zr  Zr6       1.0  0.82372  0.47961  0.07573  1.0000
  O   O13       1.0  0.79083  0.75118  0.04752  1.0000
  O   O14       1.0  0.79077  0.75119  0.83238  1.0000
  O   O15       1.0  0.54007  0.75121  0.04751  1.0000
  O   O16       1.0  0.93104  0.51064  0.16779  1.0000
  O   O17       1.0  0.93098  0.51064  0.95265  1.0000
  O   O18       1.0  0.68027  0.51066  0.16778  1.0000
  O   O19       1.0  0.93098  0.63090  0.95266  1.0000
  O   O20       1.0  0.79086  0.63092  0.16779  1.0000
  O   O21       1.0  0.68028  0.63093  0.16778  1.0000
  O   O22       1.0  0.93101  0.63090  0.04753  1.0000
  O   O23       1.0  0.68019  0.84606  0.83238  1.0000
  O   O24       1.0  0.79085  0.41578  0.16778  1.0000
  O   O25       1.0  0.93103  0.41577  0.16779  1.0000
  O   O26       1.0  0.93100  0.41577  0.04752  1.0000
  O   O27       1.0  0.54004  0.84608  0.95264  1.0000
  O   O28       1.0  0.68023  0.84606  0.95265  1.0000
  O   O29       1.0  0.77681  0.56012  0.10628  1.0000
  O   O30       1.0  0.85931  0.56011  0.03549  1.0000
  O   O31       1.0  0.77678  0.70172  0.96468  1.0000
  O   O32       1.0  0.69427  0.70173  0.03548  1.0000
  C   C1        1.0  0.73552  0.44167  0.00007  1.0000
  C   C2        1.0  0.73551  0.37744  0.00007  1.0000
  C   C3        1.0  0.51492  0.63095  0.00006  1.0000
  C   C4        1.0  0.44005  0.63095  0.00006  1.0000
  C   C5        1.0  0.77857  0.34726  0.96311  1.0000
  C   C6        1.0  0.77858  0.28690  0.96312  1.0000
  C   C7        1.0  0.73551  0.25673  0.00007  1.0000
  C   C8        1.0  0.69245  0.28691  0.03703  1.0000
  C   C9        1.0  0.69245  0.34726  0.03703  1.0000
  C   C10       1.0  0.66336  0.19471  0.99479  1.0000
  C   C11       1.0  0.66335  0.13436  0.99479  1.0000
  C   C12       1.0  0.73551  0.07057  0.00008  1.0000
  C   C13       1.0  0.80768  0.06715  0.00536  1.0000
  C   C14       1.0  0.80768  0.12751  0.00536  1.0000
  C   C15       1.0  0.73551  0.19128  0.00008  1.0000
  C   C16       1.0  0.77859  0.97495  0.96312  1.0000
  C   C17       1.0  0.77860  0.91458  0.96313  1.0000
  C   C18       1.0  0.69246  0.91459  0.03705  1.0000
  C   C19       1.0  0.69246  0.97495  0.03704  1.0000
  C   C20       1.0  0.73552  0.00513  0.00008  1.0000
  C   C21       1.0  0.16805  0.63091  0.00009  1.0000
  C   C22       1.0  0.14447  0.72024  0.95564  1.0000
  C   C23       1.0  0.22231  0.72030  0.95539  1.0000
  C   C24       1.0  0.30299  0.63093  0.00007  1.0000
  C   C25       1.0  0.30057  0.58657  0.96750  1.0000
  C   C26       1.0  0.22234  0.58714  0.96717  1.0000
  C   C27       1.0  0.22336  0.58531  0.07713  1.0000
  C   C28       1.0  0.30028  0.58699  0.07701  1.0000
  C   C29       1.0  0.37926  0.63094  0.00006  1.0000
  C   C30       1.0  0.09178  0.63090  0.00009  1.0000
  C   C31       1.0  0.95612  0.63090  0.00009  1.0000
  C   C32       1.0  0.03099  0.63089  0.00010  1.0000
  C   C33       1.0  0.73547  0.63093  0.81081  1.0000
  C   C34       1.0  0.73545  0.63093  0.74658  1.0000
  C   C35       1.0  0.73553  0.82018  0.00009  1.0000
  C   C36       1.0  0.73553  0.88441  0.00009  1.0000
  C   C37       1.0  0.69237  0.70484  0.67945  1.0000
  C   C38       1.0  0.69239  0.70484  0.61909  1.0000
  C   C39       1.0  0.73548  0.63092  0.62587  1.0000
  C   C40       1.0  0.77857  0.55700  0.69302  1.0000
  C   C41       1.0  0.77856  0.55700  0.75337  1.0000
  C   C42       1.0  0.72936  0.57430  0.55855  1.0000
  C   C43       1.0  0.72937  0.57430  0.49820  1.0000
  C   C44       1.0  0.73553  0.63092  0.43973  1.0000
  C   C45       1.0  0.74167  0.68755  0.44161  1.0000
  C   C46       1.0  0.74165  0.68755  0.50196  1.0000
  C   C47       1.0  0.73550  0.63092  0.56043  1.0000
  C   C48       1.0  0.69247  0.70484  0.30715  1.0000
  C   C49       1.0  0.69250  0.70484  0.24679  1.0000
  C   C50       1.0  0.77867  0.55699  0.32072  1.0000
  C   C51       1.0  0.77865  0.55700  0.38107  1.0000
  C   C52       1.0  0.73555  0.63092  0.37428  1.0000
  C   C53       1.0  0.73557  0.63092  0.18934  1.0000
  C   C54       1.0  0.73559  0.63092  0.25358  1.0000
  C   C55       1.0  0.95611  0.44164  0.00009  1.0000
  C   C56       1.0  0.03098  0.37740  0.00009  1.0000
  C   C57       1.0  0.73557  0.44166  0.18934  1.0000
  C   C58       1.0  0.73558  0.37743  0.25357  1.0000
  C   C59       1.0  0.95617  0.44164  0.18935  1.0000
  C   C60       1.0  0.03105  0.37740  0.25359  1.0000
  C   C61       1.0  0.51487  0.82021  0.81081  1.0000
  C   C62       1.0  0.43999  0.88445  0.74657  1.0000
  C   C63       1.0  0.51493  0.82020  0.00007  1.0000
  C   C64       1.0  0.44006  0.88444  0.00007  1.0000
  C   C65       1.0  0.73547  0.82018  0.81082  1.0000
  C   C66       1.0  0.73546  0.88441  0.74659  1.0000
  C   C67       1.0  0.02305  0.34724  0.96312  1.0000
  C   C68       1.0  0.09339  0.28689  0.96311  1.0000
  C   C69       1.0  0.17166  0.25670  0.00007  1.0000
  C   C70       1.0  0.17959  0.28687  0.03704  1.0000
  C   C71       1.0  0.10925  0.34722  0.03704  1.0000
  C   C72       1.0  0.77868  0.34726  0.32070  1.0000
  C   C73       1.0  0.77869  0.28692  0.38106  1.0000
  C   C74       1.0  0.73561  0.25674  0.37428  1.0000
  C   C75       1.0  0.69251  0.28691  0.30714  1.0000
  C   C76       1.0  0.69250  0.34726  0.24679  1.0000
  C   C77       1.0  0.10929  0.34723  0.24680  1.0000
  C   C78       1.0  0.17966  0.28688  0.30715  1.0000
  C   C79       1.0  0.17179  0.25669  0.37429  1.0000
  C   C80       1.0  0.09354  0.28687  0.38108  1.0000
  C   C81       1.0  0.02317  0.34723  0.32073  1.0000
  C   C82       1.0  0.36175  0.91462  0.75336  1.0000
  C   C83       1.0  0.29138  0.97499  0.69301  1.0000
  C   C84       1.0  0.29925  0.00518  0.62587  1.0000
  C   C85       1.0  0.37750  0.97500  0.61908  1.0000
  C   C86       1.0  0.44787  0.91463  0.67943  1.0000
  C   C87       1.0  0.44799  0.91461  0.03703  1.0000
  C   C88       1.0  0.37765  0.97498  0.03702  1.0000
  C   C89       1.0  0.29938  0.00517  0.00006  1.0000
  C   C90       1.0  0.29146  0.97500  0.96310  1.0000
  C   C91       1.0  0.36179  0.91464  0.96310  1.0000
  C   C92       1.0  0.77855  0.91457  0.75339  1.0000
  C   C93       1.0  0.77855  0.97492  0.69304  1.0000
  C   C94       1.0  0.73545  0.00511  0.62590  1.0000
  C   C95       1.0  0.69237  0.97494  0.61910  1.0000
  C   C96       1.0  0.69237  0.91459  0.67945  1.0000
  H   H1        1.0  0.81365  0.26233  0.93302  1.0000
  N   N1        1.0  0.82502  0.88202  0.82580  1.0000
  H   H2        1.0  0.85232  0.91029  0.82094  1.0000
  H   H3        1.0  0.86833  0.82143  0.85245  1.0000
  H   H4        1.0  0.95933  0.37182  0.93302  1.0000
  H   H5        1.0  0.73546  0.05425  0.57676  1.0000
  H   H6        1.0  0.51157  0.89006  0.67390  1.0000
  N   N2        1.0  0.64589  0.00751  0.54668  1.0000
  H   H7        1.0  0.65243  0.05032  0.50949  1.0000
  H   H8        1.0  0.58565  0.03252  0.54108  1.0000
  H   H9        1.0  0.22767  0.99956  0.69855  1.0000
  N   N3        1.0  0.64589  0.78458  0.67212  1.0000
  H   H10       1.0  0.68540  0.78786  0.69554  1.0000
  H   H11       1.0  0.60254  0.78783  0.69549  1.0000
  H   H12       1.0  0.81363  0.99948  0.69859  1.0000
  H   H13       1.0  0.24195  0.05434  0.57673  1.0000
  N   N4        1.0  0.64590  0.88207  0.67211  1.0000
  H   H14       1.0  0.61860  0.91036  0.62042  1.0000
  H   H15       1.0  0.60259  0.89258  0.69553  1.0000
  H   H16       1.0  0.81364  0.37183  0.93301  1.0000
  N   N5        1.0  0.64606  0.25435  0.29984  1.0000
  H   H17       1.0  0.58579  0.30039  0.27318  1.0000
  H   H18       1.0  0.65269  0.21153  0.34829  1.0000
  H   H19       1.0  0.10455  0.75513  0.89915  1.0000
  N   N6        1.0  0.82519  0.25437  0.45346  1.0000
  H   H20       1.0  0.81867  0.21156  0.49068  1.0000
  H   H21       1.0  0.80259  0.30046  0.45905  1.0000
  H   H22       1.0  0.65738  0.26233  0.06712  1.0000
  N   N7        1.0  0.73565  0.19164  0.43939  1.0000
  H   H23       1.0  0.70182  0.17709  0.42491  1.0000
  H   H24       1.0  0.71117  0.21269  0.46841  1.0000
  H   H25       1.0  0.24337  0.26231  0.30161  1.0000
  H   H26       1.0  0.24328  0.51950  0.11040  1.0000
  N   N8        1.0  0.88550  0.12382  0.01105  1.0000
  H   H27       1.0  0.93121  0.07426  0.01440  1.0000
  H   H28       1.0  0.90156  0.12017  0.05467  1.0000
  N   N9        1.0  0.64596  0.37984  0.17438  1.0000
  H   H29       1.0  0.61866  0.35157  0.17926  1.0000
  H   H30       1.0  0.68547  0.36936  0.14769  1.0000
  H   H31       1.0  0.65738  0.76503  0.30162  1.0000
  H   H32       1.0  0.08714  0.26229  0.43575  1.0000
  N   N10       1.0  0.93878  0.37976  0.32805  1.0000
  H   H33       1.0  0.90766  0.44034  0.30466  1.0000
  H   H34       1.0  0.94455  0.35141  0.37975  1.0000
  H   H35       1.0  0.35775  0.52179  0.11291  1.0000
  H   H36       1.0  0.35532  0.89005  0.80802  1.0000
  H   H37       1.0  0.11572  0.37180  0.19214  1.0000
  N   N11       1.0  0.64599  0.00751  0.07689  1.0000
  H   H38       1.0  0.65253  0.05033  0.07128  1.0000
  H   H39       1.0  0.66862  0.96142  0.12858  1.0000
  H   H40       1.0  0.24211  0.05432  0.00007  1.0000
  N   N12       1.0  0.24752  0.19160  0.00006  1.0000
  H   H41       1.0  0.24754  0.14153  0.02108  1.0000
  H   H42       1.0  0.29827  0.17712  0.02907  1.0000
  H   H43       1.0  0.38412  0.99953  0.06713  1.0000
  H   H44       1.0  0.65739  0.89003  0.06714  1.0000
  H   H45       1.0  0.74665  0.73366  0.50349  1.0000
  N   N13       1.0  0.35323  0.88210  0.92324  1.0000
  H   H46       1.0  0.38049  0.82151  0.95714  1.0000
  H   H47       1.0  0.38047  0.89265  0.88605  1.0000
  N   N14       1.0  0.88551  0.99837  0.01106  1.0000
  H   H48       1.0  0.87457  0.96065  0.01026  1.0000
  H   H49       1.0  0.92994  0.96702  0.05675  1.0000
  H   H50       1.0  0.38390  0.99959  0.56441  1.0000
  N   N15       1.0  0.82503  0.00750  0.92326  1.0000
  H   H51       1.0  0.85232  0.97921  0.89985  1.0000
  H   H52       1.0  0.86835  0.99700  0.95719  1.0000
  H   H53       1.0  0.51171  0.89003  0.06713  1.0000
  N   N16       1.0  0.82514  0.37980  0.32802  1.0000
  H   H54       1.0  0.78563  0.44039  0.30462  1.0000
  H   H55       1.0  0.86849  0.36924  0.30465  1.0000
  N   N17       1.0  0.26400  0.25430  0.07690  1.0000
  H   H56       1.0  0.30735  0.21149  0.07128  1.0000
  H   H57       1.0  0.27054  0.22930  0.12858  1.0000
  H   H58       1.0  0.81373  0.49681  0.43573  1.0000
  N   N18       1.0  0.20704  0.00756  0.92325  1.0000
  H   H59       1.0  0.16369  0.05037  0.92887  1.0000
  H   H60       1.0  0.20053  0.96146  0.94267  1.0000
  H   H61       1.0  0.65731  0.76503  0.56443  1.0000
  N   N19       1.0  0.24769  0.19160  0.43938  1.0000
  H   H62       1.0  0.29845  0.17706  0.42489  1.0000
  H   H63       1.0  0.24766  0.14155  0.46840  1.0000
  N   N20       1.0  0.64604  0.78455  0.17438  1.0000
  H   H64       1.0  0.68556  0.78784  0.14772  1.0000
  H   H65       1.0  0.61873  0.83135  0.17928  1.0000
  N   N21       1.0  0.82505  0.88203  0.92327  1.0000
  H   H66       1.0  0.85232  0.91031  0.89986  1.0000
  H   H67       1.0  0.78548  0.89253  0.88612  1.0000
  N   N22       1.0  0.58553  0.13804  0.98912  1.0000
  H   H68       1.0  0.54104  0.19046  0.94344  1.0000
  H   H69       1.0  0.56701  0.13596  0.03024  1.0000
  N   N23       1.0  0.58552  0.26350  0.98909  1.0000
  H   H70       1.0  0.53981  0.25651  0.98573  1.0000
  H   H71       1.0  0.56947  0.31723  0.94547  1.0000
  H   H72       1.0  0.65738  0.37183  0.06713  1.0000
  H   H73       1.0  0.22104  0.75528  0.97707  1.0000
  H   H74       1.0  0.22052  0.75531  0.89856  1.0000
  N   N24       1.0  0.09260  0.76668  0.98443  1.0000
  H   H75       1.0  0.04042  0.76923  0.98240  1.0000
  H   H76       1.0  0.07821  0.82381  0.95514  1.0000
  N   N25       1.0  0.17391  0.62890  0.89208  1.0000
  H   H77       1.0  0.20348  0.64677  0.85950  1.0000
  H   H78       1.0  0.11737  0.67811  0.87813  1.0000
  H   H79       1.0  0.24170  0.52160  0.99745  1.0000
  H   H80       1.0  0.30211  0.61738  0.91135  1.0000
  N   N26       1.0  0.37583  0.49954  0.00831  1.0000
  H   H81       1.0  0.41231  0.48800  0.04840  1.0000
  H   H82       1.0  0.40715  0.49110  0.97583  1.0000
  H   H83       1.0  0.29991  0.61933  0.10134  1.0000
  N   N27       1.0  0.17528  0.62316  0.11317  1.0000
  H   H84       1.0  0.11715  0.67026  0.07992  1.0000
  H   H85       1.0  0.20247  0.64354  0.12675  1.0000
  N   N28       1.0  0.11781  0.37975  0.07692  1.0000
  H   H86       1.0  0.17806  0.35146  0.10033  1.0000
  H   H87       1.0  0.09051  0.36924  0.11408  1.0000
  H   H88       1.0  0.74669  0.73366  0.39399  1.0000
  H   H89       1.0  0.81376  0.49681  0.32624  1.0000
  H   H90       1.0  0.72434  0.52819  0.60616  1.0000
  N   N29       1.0  0.72277  0.51321  0.49618  1.0000
  H   H91       1.0  0.66951  0.52075  0.50290  1.0000
  H   H92       1.0  0.77070  0.45618  0.53523  1.0000
  N   N30       1.0  0.82505  0.47727  0.70033  1.0000
  H   H93       1.0  0.81852  0.48849  0.65191  1.0000
  H   H94       1.0  0.80244  0.44500  0.72701  1.0000
  H   H95       1.0  0.08692  0.26234  0.93301  1.0000
  N   N31       1.0  0.82502  0.47728  0.82578  1.0000
  H   H96       1.0  0.85233  0.43045  0.82092  1.0000
  H   H97       1.0  0.78546  0.47406  0.85241  1.0000
