data_image0
_chemical_formula_structural       ZrO12Zr5O20C102HOH2OHOH2OHOH4OH4OHOH4OH9OHOHOHOHOH2OH5OHOHOH2OHOH2OHOH2OH2OHOHOH4OHOHOH4OH2
_chemical_formula_sum              "Zr6 O62 C102 H66"
_cell_length_a       23.1964
_cell_length_b       23.1964
_cell_length_c       23.1964
_cell_angle_alpha    60.0085
_cell_angle_beta     90.0113
_cell_angle_gamma    59.9967

_space_group_name_H-M_alt    "P 1"
_space_group_IT_number       1

loop_
  _space_group_symop_operation_xyz
  'x, y, z'

loop_
  _atom_site_type_symbol
  _atom_site_label
  _atom_site_symmetry_multiplicity
  _atom_site_fract_x
  _atom_site_fract_y
  _atom_site_fract_z
  _atom_site_occupancy
  Zr  Zr1       1.0  0.55534  0.63101  0.92435  1.0000
  O   O1        1.0  0.46327  0.75128  0.83230  1.0000
  O   O2        1.0  0.58357  0.51074  0.95256  1.0000
  O   O3        1.0  0.58354  0.63101  0.83230  1.0000
  O   O4        1.0  0.46332  0.63101  0.04744  1.0000
  O   O5        1.0  0.67841  0.63101  0.83229  1.0000
  O   O6        1.0  0.46330  0.63101  0.95257  1.0000
  O   O7        1.0  0.67847  0.41586  0.04743  1.0000
  O   O8        1.0  0.46326  0.84615  0.83230  1.0000
  O   O9        1.0  0.66641  0.56020  0.96460  1.0000
  O   O10       1.0  0.59562  0.56020  0.03540  1.0000
  O   O11       1.0  0.59559  0.70181  0.89380  1.0000
  O   O12       1.0  0.52480  0.70181  0.96460  1.0000
  Zr  Zr2       1.0  0.70669  0.63100  0.07565  1.0000
  Zr  Zr3       1.0  0.70665  0.63100  0.92434  1.0000
  Zr  Zr4       1.0  0.55538  0.63100  0.07566  1.0000
  Zr  Zr5       1.0  0.55534  0.78231  0.92435  1.0000
  Zr  Zr6       1.0  0.70669  0.47969  0.07565  1.0000
  O   O13       1.0  0.67846  0.75127  0.04744  1.0000
  O   O14       1.0  0.67841  0.75128  0.83230  1.0000
  O   O15       1.0  0.46332  0.75128  0.04744  1.0000
  O   O16       1.0  0.79876  0.51073  0.16770  1.0000
  O   O17       1.0  0.79871  0.51073  0.95256  1.0000
  O   O18       1.0  0.58362  0.51073  0.16770  1.0000
  O   O19       1.0  0.79871  0.63100  0.95256  1.0000
  O   O20       1.0  0.67849  0.63100  0.16771  1.0000
  O   O21       1.0  0.58362  0.63100  0.16771  1.0000
  O   O22       1.0  0.79873  0.63100  0.04743  1.0000
  O   O23       1.0  0.58354  0.84615  0.83230  1.0000
  O   O24       1.0  0.67850  0.41586  0.16770  1.0000
  O   O25       1.0  0.79877  0.41586  0.16770  1.0000
  O   O26       1.0  0.79874  0.41586  0.04743  1.0000
  O   O27       1.0  0.46329  0.84615  0.95257  1.0000
  O   O28       1.0  0.58356  0.84615  0.95257  1.0000
  O   O29       1.0  0.66644  0.56020  0.10620  1.0000
  O   O30       1.0  0.73723  0.56020  0.03540  1.0000
  O   O31       1.0  0.66641  0.70180  0.96460  1.0000
  O   O32       1.0  0.59562  0.70181  0.03540  1.0000
  C   C1        1.0  0.63102  0.44174  1.00000  1.0000
  C   C2        1.0  0.63102  0.37751  0.99999  1.0000
  C   C3        1.0  0.66797  0.91466  0.96305  1.0000
  C   C4        1.0  0.66796  0.97502  0.96305  1.0000
  C   C5        1.0  0.63102  0.00520  0.00001  1.0000
  C   C6        1.0  0.59405  0.97504  0.03696  1.0000
  C   C7        1.0  0.59405  0.91469  0.03696  1.0000
  C   C8        1.0  0.63631  0.06723  0.06191  1.0000
  C   C9        1.0  0.63632  0.12758  0.06191  1.0000
  C   C10       1.0  0.63102  0.19135  0.00001  1.0000
  C   C11       1.0  0.62573  0.19476  0.93810  1.0000
  C   C12       1.0  0.62573  0.13441  0.93810  1.0000
  C   C13       1.0  0.63101  0.07065  0.00001  1.0000
  C   C14       1.0  0.66798  0.28696  0.96305  1.0000
  C   C15       1.0  0.66797  0.34733  0.96304  1.0000
  C   C16       1.0  0.59406  0.34734  0.03696  1.0000
  C   C17       1.0  0.59406  0.28698  0.03696  1.0000
  C   C18       1.0  0.63103  0.25679  0.00000  1.0000
  C   C19       1.0  0.44175  0.63101  0.00000  1.0000
  C   C20       1.0  0.37752  0.63101  0.00001  1.0000
  C   C21       1.0  0.34733  0.63102  0.94774  1.0000
  C   C22       1.0  0.28698  0.63101  0.94774  1.0000
  C   C23       1.0  0.25681  0.63101  0.00000  1.0000
  C   C24       1.0  0.28700  0.63100  0.05228  1.0000
  C   C25       1.0  0.34736  0.63100  0.05228  1.0000
  C   C26       1.0  0.13744  0.67852  0.01629  1.0000
  C   C27       1.0  0.07708  0.67853  0.01628  1.0000
  C   C28       1.0  0.07066  0.63101  1.00000  1.0000
  C   C29       1.0  0.12459  0.58350  0.98371  1.0000
  C   C30       1.0  0.18494  0.58350  0.98371  1.0000
  C   C31       1.0  0.19136  0.63101  0.00000  1.0000
  C   C32       1.0  0.97503  0.63101  0.94773  1.0000
  C   C33       1.0  0.91468  0.63100  0.94773  1.0000
  C   C34       1.0  0.91470  0.63099  0.05227  1.0000
  C   C35       1.0  0.97505  0.63100  0.05227  1.0000
  C   C36       1.0  0.00521  0.63101  0.99999  1.0000
  C   C37       1.0  0.82028  0.63100  1.00000  1.0000
  C   C38       1.0  0.88451  0.63100  0.99999  1.0000
  C   C39       1.0  0.63097  0.63101  0.81073  1.0000
  C   C40       1.0  0.63095  0.63101  0.74650  1.0000
  C   C41       1.0  0.63101  0.82027  0.00000  1.0000
  C   C42       1.0  0.63101  0.88450  0.00001  1.0000
  C   C43       1.0  0.59399  0.70492  0.67937  1.0000
  C   C44       1.0  0.59401  0.70492  0.61902  1.0000
  C   C45       1.0  0.63098  0.63101  0.62579  1.0000
  C   C46       1.0  0.66795  0.55708  0.69294  1.0000
  C   C47       1.0  0.66794  0.55708  0.75329  1.0000
  C   C48       1.0  0.62573  0.57438  0.55848  1.0000
  C   C49       1.0  0.62574  0.57438  0.49812  1.0000
  C   C50       1.0  0.63102  0.63100  0.43965  1.0000
  C   C51       1.0  0.63629  0.68763  0.44153  1.0000
  C   C52       1.0  0.63627  0.68763  0.50188  1.0000
  C   C53       1.0  0.63100  0.63100  0.56036  1.0000
  C   C54       1.0  0.59408  0.70492  0.30707  1.0000
  C   C55       1.0  0.59410  0.70492  0.24672  1.0000
  C   C56       1.0  0.66804  0.55707  0.32064  1.0000
  C   C57       1.0  0.66802  0.55708  0.38099  1.0000
  C   C58       1.0  0.63104  0.63100  0.37420  1.0000
  C   C59       1.0  0.63106  0.63100  0.18926  1.0000
  C   C60       1.0  0.63108  0.63100  0.25350  1.0000
  C   C61       1.0  0.82028  0.44174  0.99999  1.0000
  C   C62       1.0  0.88452  0.37750  0.99999  1.0000
  C   C63       1.0  0.63106  0.44174  0.18926  1.0000
  C   C64       1.0  0.63108  0.37750  0.25349  1.0000
  C   C65       1.0  0.82033  0.44173  0.18926  1.0000
  C   C66       1.0  0.88458  0.37750  0.25349  1.0000
  C   C67       1.0  0.44170  0.82027  0.81074  1.0000
  C   C68       1.0  0.37745  0.88451  0.74651  1.0000
  C   C69       1.0  0.44175  0.82027  0.00001  1.0000
  C   C70       1.0  0.37751  0.88451  0.00001  1.0000
  C   C71       1.0  0.63097  0.82027  0.81074  1.0000
  C   C72       1.0  0.63095  0.88450  0.74651  1.0000
  C   C73       1.0  0.87772  0.34734  0.96302  1.0000
  C   C74       1.0  0.93807  0.28699  0.96301  1.0000
  C   C75       1.0  0.00522  0.25680  0.99996  1.0000
  C   C76       1.0  0.01202  0.28697  0.03693  1.0000
  C   C77       1.0  0.95167  0.34732  0.03694  1.0000
  C   C78       1.0  0.66805  0.34734  0.32062  1.0000
  C   C79       1.0  0.66807  0.28699  0.38098  1.0000
  C   C80       1.0  0.63111  0.25681  0.37421  1.0000
  C   C81       1.0  0.59413  0.28698  0.30708  1.0000
  C   C82       1.0  0.59411  0.34733  0.24672  1.0000
  C   C83       1.0  0.95171  0.34733  0.24669  1.0000
  C   C84       1.0  0.01209  0.28698  0.30704  1.0000
  C   C85       1.0  0.00533  0.25680  0.37418  1.0000
  C   C86       1.0  0.93820  0.28697  0.38097  1.0000
  C   C87       1.0  0.87782  0.34732  0.32063  1.0000
  C   C88       1.0  0.31032  0.91468  0.75331  1.0000
  C   C89       1.0  0.24994  0.97505  0.69296  1.0000
  C   C90       1.0  0.25670  0.00524  0.62582  1.0000
  C   C91       1.0  0.32383  0.97506  0.61903  1.0000
  C   C92       1.0  0.38421  0.91470  0.67937  1.0000
  C   C93       1.0  0.38431  0.91468  0.03697  1.0000
  C   C94       1.0  0.32396  0.97504  0.03697  1.0000
  C   C95       1.0  0.25681  0.00523  0.00001  1.0000
  C   C96       1.0  0.25001  0.97506  0.96305  1.0000
  C   C97       1.0  0.31036  0.91470  0.96305  1.0000
  C   C98       1.0  0.66791  0.91467  0.75330  1.0000
  C   C99       1.0  0.66791  0.97502  0.69295  1.0000
  C   C100      1.0  0.63094  0.00520  0.62581  1.0000
  C   C101      1.0  0.59398  0.97503  0.61902  1.0000
  C   C102      1.0  0.59398  0.91468  0.67937  1.0000
  H   H1        1.0  0.62141  0.24669  0.88769  1.0000
  O   O33       1.0  0.63114  0.19170  0.43932  1.0000
  H   H2        1.0  0.57612  0.21486  0.43930  1.0000
  H   H3        1.0  0.20753  0.05439  0.57669  1.0000
  O   O34       1.0  0.70792  0.37989  0.32793  1.0000
  H   H4        1.0  0.73362  0.34877  0.38475  1.0000
  O   O35       1.0  0.80542  0.37985  0.32796  1.0000
  H   H5        1.0  0.77615  0.36826  0.30223  1.0000
  H   H6        1.0  0.69818  0.26243  0.43564  1.0000
  O   O36       1.0  0.80530  0.37990  0.92316  1.0000
  H   H7        1.0  0.79916  0.32924  0.94450  1.0000
  O   O37       1.0  0.33130  0.00757  0.07685  1.0000
  H   H8        1.0  0.36062  0.03504  0.05551  1.0000
  H   H9        1.0  0.05436  0.20766  0.99995  1.0000
  H   H10       1.0  0.69802  0.89010  0.80796  1.0000
  H   H11       1.0  0.56387  0.99962  0.56435  1.0000
  O   O38       1.0  0.64196  0.74870  0.50391  1.0000
  H   H12       1.0  0.59450  0.78695  0.51227  1.0000
  H   H13       1.0  0.32932  0.99965  0.56435  1.0000
  H   H14       1.0  0.69806  0.99958  0.93296  1.0000
  H   H15       1.0  0.64063  0.12479  0.11232  1.0000
  O   O39       1.0  0.64203  0.99844  0.12869  1.0000
  H   H16       1.0  0.64572  0.00620  0.17174  1.0000
  O   O40       1.0  0.93073  0.25445  0.92314  1.0000
  H   H17       1.0  0.95647  0.18787  0.96044  1.0000
  H   H18       1.0  0.26240  0.63101  0.90517  1.0000
  H   H19       1.0  0.89011  0.63100  0.90517  1.0000
  H   H20       1.0  0.06670  0.26238  0.06701  1.0000
  O   O41       1.0  0.55429  0.25440  0.29978  1.0000
  H   H21       1.0  0.56054  0.20735  0.35303  1.0000
  H   H22       1.0  0.69806  0.37189  0.93294  1.0000
  H   H23       1.0  0.56396  0.76511  0.30154  1.0000
  H   H24       1.0  0.56401  0.37188  0.19206  1.0000
  H   H25       1.0  0.43898  0.89010  0.06707  1.0000
  H   H26       1.0  0.95722  0.37188  0.06704  1.0000
  H   H27       1.0  0.06675  0.26242  0.30150  1.0000
  H   H28       1.0  0.56395  0.89013  0.06705  1.0000
  H   H29       1.0  0.62142  0.52827  0.60608  1.0000
  O   O42       1.0  0.45661  0.88215  0.67204  1.0000
  H   H30       1.0  0.45116  0.91328  0.61521  1.0000
  O   O43       1.0  0.95900  0.37989  0.17428  1.0000
  H   H31       1.0  0.01583  0.34877  0.17971  1.0000
  O   O44       1.0  0.70779  0.00755  0.70028  1.0000
  H   H32       1.0  0.68642  0.03505  0.72958  1.0000
  O   O45       1.0  0.07046  0.19169  0.43926  1.0000
  H   H33       1.0  0.07043  0.13670  0.47113  1.0000
  O   O46       1.0  0.19173  0.07031  0.00005  1.0000
  H   H34       1.0  0.19176  0.12530  0.97694  1.0000
  H   H35       1.0  0.93271  0.26238  0.43565  1.0000
  O   O47       1.0  0.30303  0.88214  0.82572  1.0000
  H   H36       1.0  0.24620  0.91327  0.82029  1.0000
  H   H37       1.0  0.62145  0.52827  0.49660  1.0000
  H   H38       1.0  0.30481  0.89014  0.93295  1.0000
  H   H39       1.0  0.19528  0.99961  0.69850  1.0000
  H   H40       1.0  0.19533  0.99965  0.93296  1.0000
  O   O48       1.0  0.63093  0.07031  0.56072  1.0000
  H   H41       1.0  0.66284  0.08621  0.57673  1.0000
  O   O49       1.0  0.55410  0.88216  0.67204  1.0000
  H   H42       1.0  0.52839  0.91330  0.61521  1.0000
  O   O50       1.0  0.00758  0.63101  0.89135  1.0000
  H   H43       1.0  0.97645  0.63099  0.85501  1.0000
  H   H44       1.0  0.62142  0.13720  0.88769  1.0000
  O   O51       1.0  0.70782  0.88212  0.92319  1.0000
  H   H45       1.0  0.73351  0.91324  0.89748  1.0000
  O   O52       1.0  0.70783  0.25441  0.92318  1.0000
  H   H46       1.0  0.73352  0.28554  0.89747  1.0000
  H   H47       1.0  0.99963  0.63100  0.09483  1.0000
  O   O53       1.0  0.55422  0.37988  0.07683  1.0000
  H   H48       1.0  0.51337  0.44646  0.03952  1.0000
  O   O54       1.0  0.55418  0.25446  0.07679  1.0000
  H   H49       1.0  0.52848  0.28560  0.10248  1.0000
  H   H50       1.0  0.37189  0.63102  0.90517  1.0000
  O   O55       1.0  0.55423  0.00755  0.07685  1.0000
  H   H51       1.0  0.56046  0.05457  0.07066  1.0000
  H   H52       1.0  0.11936  0.54481  0.97044  1.0000
  O   O56       1.0  0.24312  0.53226  0.96614  1.0000
  H   H53       1.0  0.26411  0.46714  0.00462  1.0000
  O   O57       1.0  0.88218  0.63099  0.10865  1.0000
  H   H54       1.0  0.82704  0.68626  0.08352  1.0000
  O   O58       1.0  0.01894  0.72970  0.03392  1.0000
  H   H55       1.0  0.03356  0.76271  0.04528  1.0000
  H   H56       1.0  0.14268  0.71716  0.02961  1.0000
  H   H57       1.0  0.26243  0.63100  0.09483  1.0000
  H   H58       1.0  0.56388  0.76512  0.67384  1.0000
  O   O59       1.0  0.37992  0.63099  0.10866  1.0000
  H   H59       1.0  0.34880  0.63100  0.14500  1.0000
  O   O60       1.0  0.55414  0.78464  0.54660  1.0000
  H   H60       1.0  0.49732  0.82008  0.54044  1.0000
  O   O61       1.0  0.64200  0.74871  0.37846  1.0000
  H   H61       1.0  0.64113  0.73919  0.33618  1.0000
  H   H62       1.0  0.56400  0.76511  0.19206  1.0000
  H   H63       1.0  0.69815  0.49689  0.32616  1.0000
  H   H64       1.0  0.69806  0.49690  0.69845  1.0000
  O   O62       1.0  0.70788  0.47736  0.45340  1.0000
  H   H65       1.0  0.73359  0.42596  0.44797  1.0000
  H   H66       1.0  0.69804  0.49689  0.80795  1.0000
