data_image0
_chemical_formula_structural       Zn4O13C44H2ClHClH3ClH3ClHClH5
_chemical_formula_sum              "Zn4 O13 C44 H15 Cl5"
_cell_length_a       12.7594
_cell_length_b       12.7594
_cell_length_c       18.2154
_cell_angle_alpha    90.0236
_cell_angle_beta     90.0182
_cell_angle_gamma    90.0145

_space_group_name_H-M_alt    "P 1"
_space_group_IT_number       1

loop_
  _space_group_symop_operation_xyz
  'x, y, z'

loop_
  _atom_site_type_symbol
  _atom_site_label
  _atom_site_symmetry_multiplicity
  _atom_site_fract_x
  _atom_site_fract_y
  _atom_site_fract_z
  _atom_site_occupancy
  Zn  Zn1       1.0  0.60624  0.58174  0.41611  1.0000
  Zn  Zn2       1.0  0.60614  0.40605  0.29305  1.0000
  Zn  Zn3       1.0  0.43055  0.58171  0.29306  1.0000
  Zn  Zn4       1.0  0.43053  0.40610  0.41608  1.0000
  O   O1        1.0  0.51837  0.49390  0.35457  1.0000
  O   O2        1.0  0.75325  0.55843  0.39979  1.0000
  O   O3        1.0  0.58282  0.42931  0.19007  1.0000
  O   O4        1.0  0.45390  0.72873  0.30939  1.0000
  O   O5        1.0  0.75318  0.42934  0.30938  1.0000
  O   O6        1.0  0.58298  0.72876  0.39980  1.0000
  O   O7        1.0  0.45381  0.55837  0.19007  1.0000
  O   O8        1.0  0.28353  0.55842  0.30937  1.0000
  O   O9        1.0  0.45388  0.42944  0.51907  1.0000
  O   O10       1.0  0.28352  0.42941  0.39975  1.0000
  O   O11       1.0  0.58297  0.55848  0.51909  1.0000
  O   O12       1.0  0.58280  0.25903  0.30935  1.0000
  O   O13       1.0  0.45378  0.25907  0.39974  1.0000
  C   C1        1.0  0.24540  0.49392  0.35456  1.0000
  C   C2        1.0  0.12862  0.49390  0.35457  1.0000
  C   C3        1.0  0.90923  0.35931  0.44856  1.0000
  C   C4        1.0  0.96411  0.29204  0.49554  1.0000
  C   C5        1.0  0.07383  0.29205  0.49553  1.0000
  C   C6        1.0  0.12867  0.35934  0.44853  1.0000
  C   C7        1.0  0.07379  0.42661  0.40155  1.0000
  C   C8        1.0  0.96406  0.42660  0.40157  1.0000
  C   C9        1.0  0.07374  0.56117  0.30759  1.0000
  C   C10       1.0  0.96402  0.56116  0.30760  1.0000
  C   C11       1.0  0.12858  0.62846  0.26060  1.0000
  C   C12       1.0  0.07369  0.69574  0.21362  1.0000
  C   C13       1.0  0.96396  0.69572  0.21363  1.0000
  C   C14       1.0  0.90913  0.62843  0.26062  1.0000
  C   C15       1.0  0.51831  0.22093  0.35456  1.0000
  C   C16       1.0  0.51838  0.10415  0.35458  1.0000
  C   C17       1.0  0.65269  0.10434  0.44879  1.0000
  C   C18       1.0  0.71988  0.04957  0.49590  1.0000
  C   C19       1.0  0.71994  0.93985  0.49591  1.0000
  C   C20       1.0  0.65281  0.88489  0.44882  1.0000
  C   C21       1.0  0.58562  0.93966  0.40171  1.0000
  C   C22       1.0  0.58556  0.04939  0.40170  1.0000
  C   C23       1.0  0.45130  0.93948  0.30750  1.0000
  C   C24       1.0  0.45124  0.04920  0.30748  1.0000
  C   C25       1.0  0.38417  0.88452  0.26041  1.0000
  C   C26       1.0  0.31698  0.93929  0.21329  1.0000
  C   C27       1.0  0.31692  0.04902  0.21328  1.0000
  C   C28       1.0  0.38406  0.10397  0.26037  1.0000
  C   C29       1.0  0.79240  0.49388  0.35459  1.0000
  C   C30       1.0  0.90918  0.49387  0.35460  1.0000
  C   C31       1.0  0.51843  0.49397  0.54653  1.0000
  C   C32       1.0  0.51846  0.49400  0.62833  1.0000
  C   C33       1.0  0.51846  0.76793  0.35460  1.0000
  C   C34       1.0  0.51849  0.88471  0.35461  1.0000
  C   C35       1.0  0.51836  0.49390  0.16337  1.0000
  C   C36       1.0  0.51854  0.49417  0.08157  1.0000
  C   C37       1.0  0.58570  0.56126  0.81653  1.0000
  C   C38       1.0  0.58571  0.56129  0.89339  1.0000
  C   C39       1.0  0.45129  0.42691  0.89336  1.0000
  C   C40       1.0  0.45127  0.42688  0.81650  1.0000
  C   C41       1.0  0.51849  0.49406  0.77809  1.0000
  C   C42       1.0  0.51852  0.49411  0.93181  1.0000
  C   C43       1.0  0.51853  0.49414  0.01514  1.0000
  C   C44       1.0  0.51847  0.49403  0.69475  1.0000
  H   H1        1.0  0.91945  0.23725  0.53380  1.0000
  H   H2        1.0  0.26221  0.09360  0.17492  1.0000
  Cl  Cl1       1.0  0.36676  0.34241  0.76817  1.0000
  H   H3        1.0  0.39657  0.37222  0.92464  1.0000
  Cl  Cl2       1.0  0.38397  0.24190  0.26037  1.0000
  H   H4        1.0  0.64044  0.61601  0.92469  1.0000
  H   H5        1.0  0.77464  0.89526  0.53428  1.0000
  H   H6        1.0  0.65285  0.79555  0.44884  1.0000
  Cl  Cl3       1.0  0.77119  0.62841  0.26065  1.0000
  H   H7        1.0  0.81989  0.35930  0.44858  1.0000
  H   H8        1.0  0.21801  0.35934  0.44852  1.0000
  H   H9        1.0  0.11852  0.23727  0.53378  1.0000
  Cl  Cl4       1.0  0.26651  0.62847  0.26058  1.0000
  H   H10       1.0  0.11835  0.75051  0.17536  1.0000
  Cl  Cl5       1.0  0.89497  0.78029  0.15457  1.0000
  H   H11       1.0  0.65266  0.19368  0.44877  1.0000
  H   H12       1.0  0.64043  0.61596  0.78526  1.0000
  H   H13       1.0  0.26232  0.89454  0.17495  1.0000
  H   H14       1.0  0.77454  0.09433  0.53425  1.0000
  H   H15       1.0  0.38422  0.79518  0.26043  1.0000
