data_image0
_chemical_formula_structural       Zn8O26C80H8C2H6C2H10C2H6C2H6C2H10C2H12C2H6C2H6C2H6C2H8
_chemical_formula_sum              "Zn8 O26 C100 H84"
_cell_length_a       17.0774
_cell_length_b       12.7594
_cell_length_c       17.0774
_cell_angle_alpha    89.9122
_cell_angle_beta     89.9411
_cell_angle_gamma    90.0149

_space_group_name_H-M_alt    "P 1"
_space_group_IT_number       1

loop_
  _space_group_symop_operation_xyz
  'x, y, z'

loop_
  _atom_site_type_symbol
  _atom_site_label
  _atom_site_symmetry_multiplicity
  _atom_site_fract_x
  _atom_site_fract_y
  _atom_site_fract_z
  _atom_site_occupancy
  Zn  Zn1       1.0  0.20040  0.58238  0.55614  1.0000
  Zn  Zn2       1.0  0.70040  0.08239  0.05614  1.0000
  Zn  Zn3       1.0  0.20024  0.40649  0.68740  1.0000
  Zn  Zn4       1.0  0.70024  0.90649  0.18740  1.0000
  Zn  Zn5       1.0  0.06905  0.58216  0.68739  1.0000
  Zn  Zn6       1.0  0.56905  0.08216  0.18739  1.0000
  Zn  Zn7       1.0  0.06912  0.40675  0.55618  1.0000
  Zn  Zn8       1.0  0.56912  0.90675  0.05618  1.0000
  O   O1        1.0  0.13470  0.49445  0.62178  1.0000
  O   O2        1.0  0.63470  0.99445  0.12178  1.0000
  O   O3        1.0  0.31023  0.55904  0.57354  1.0000
  O   O4        1.0  0.81023  0.05904  0.07354  1.0000
  O   O5        1.0  0.18274  0.42960  0.79725  1.0000
  O   O6        1.0  0.68274  0.92960  0.29725  1.0000
  O   O7        1.0  0.08651  0.72921  0.66996  1.0000
  O   O8        1.0  0.58651  0.22921  0.16996  1.0000
  O   O9        1.0  0.31011  0.42981  0.66998  1.0000
  O   O10       1.0  0.81011  0.92982  0.16998  1.0000
  O   O11       1.0  0.18302  0.72938  0.57353  1.0000
  O   O12       1.0  0.68302  0.22938  0.07353  1.0000
  O   O13       1.0  0.08635  0.55865  0.79724  1.0000
  O   O14       1.0  0.58635  0.05865  0.29724  1.0000
  O   O15       1.0  0.95921  0.55890  0.67000  1.0000
  O   O16       1.0  0.45921  0.05890  0.17000  1.0000
  O   O17       1.0  0.08664  0.43025  0.44632  1.0000
  O   O18       1.0  0.58664  0.93025  0.94632  1.0000
  O   O19       1.0  0.95927  0.43003  0.57359  1.0000
  O   O20       1.0  0.45927  0.93003  0.07359  1.0000
  O   O21       1.0  0.18309  0.55929  0.44630  1.0000
  O   O22       1.0  0.68309  0.05929  0.94630  1.0000
  O   O23       1.0  0.18281  0.25951  0.67001  1.0000
  O   O24       1.0  0.68281  0.75951  0.17001  1.0000
  O   O25       1.0  0.08648  0.25969  0.57360  1.0000
  O   O26       1.0  0.58648  0.75969  0.07360  1.0000
  C   C1        1.0  0.93076  0.49447  0.62180  1.0000
  C   C2        1.0  0.43076  0.99447  0.12180  1.0000
  C   C3        1.0  0.84351  0.49445  0.62179  1.0000
  C   C4        1.0  0.34351  0.99445  0.12179  1.0000
  C   C5        1.0  0.13466  0.22148  0.62179  1.0000
  C   C6        1.0  0.63466  0.72148  0.12179  1.0000
  C   C7        1.0  0.13471  0.10470  0.62177  1.0000
  C   C8        1.0  0.63471  0.60470  0.12177  1.0000
  C   C9        1.0  0.80257  0.42724  0.57167  1.0000
  C   C10       1.0  0.30257  0.92724  0.07167  1.0000
  C   C11       1.0  0.72058  0.42724  0.57166  1.0000
  C   C12       1.0  0.22059  0.92724  0.07166  1.0000
  C   C13       1.0  0.67955  0.49444  0.62177  1.0000
  C   C14       1.0  0.17955  0.99444  0.12177  1.0000
  C   C15       1.0  0.72049  0.56165  0.67189  1.0000
  C   C16       1.0  0.22049  0.06165  0.17189  1.0000
  C   C17       1.0  0.80247  0.56166  0.67190  1.0000
  C   C18       1.0  0.30247  0.06166  0.17190  1.0000
  C   C19       1.0  0.54962  0.56163  0.67187  1.0000
  C   C20       1.0  0.04962  0.06163  0.17187  1.0000
  C   C21       1.0  0.46764  0.56162  0.67186  1.0000
  C   C22       1.0  0.96764  0.06162  0.17186  1.0000
  C   C23       1.0  0.46774  0.42721  0.57163  1.0000
  C   C24       1.0  0.96774  0.92721  0.07163  1.0000
  C   C25       1.0  0.54971  0.42722  0.57164  1.0000
  C   C26       1.0  0.04971  0.92722  0.07164  1.0000
  C   C27       1.0  0.59066  0.49443  0.62176  1.0000
  C   C28       1.0  0.09066  0.99443  0.12176  1.0000
  C   C29       1.0  0.18492  0.04978  0.67192  1.0000
  C   C30       1.0  0.68492  0.54978  0.17192  1.0000
  C   C31       1.0  0.18497  0.94005  0.67190  1.0000
  C   C32       1.0  0.68497  0.44005  0.17189  1.0000
  C   C33       1.0  0.08458  0.94019  0.57158  1.0000
  C   C34       1.0  0.58458  0.44019  0.07158  1.0000
  C   C35       1.0  0.08454  0.04991  0.57160  1.0000
  C   C36       1.0  0.58454  0.54991  0.07160  1.0000
  C   C37       1.0  0.23509  0.10457  0.72209  1.0000
  C   C38       1.0  0.73509  0.60457  0.22209  1.0000
  C   C39       1.0  0.28531  0.04965  0.77224  1.0000
  C   C40       1.0  0.78531  0.54965  0.27224  1.0000
  C   C41       1.0  0.28536  0.93992  0.77222  1.0000
  C   C42       1.0  0.78536  0.43992  0.27222  1.0000
  C   C43       1.0  0.23519  0.88512  0.72205  1.0000
  C   C44       1.0  0.73519  0.38512  0.22205  1.0000
  C   C45       1.0  0.33945  0.49443  0.62176  1.0000
  C   C46       1.0  0.83945  0.99443  0.12175  1.0000
  C   C47       1.0  0.42670  0.49442  0.62175  1.0000
  C   C48       1.0  0.92670  0.99442  0.12175  1.0000
  C   C49       1.0  0.13489  0.49482  0.41703  1.0000
  C   C50       1.0  0.63489  0.99482  0.91703  1.0000
  C   C51       1.0  0.13497  0.49498  0.32978  1.0000
  C   C52       1.0  0.63497  0.99498  0.82978  1.0000
  C   C53       1.0  0.13477  0.76848  0.62174  1.0000
  C   C54       1.0  0.63477  0.26848  0.12174  1.0000
  C   C55       1.0  0.13480  0.88526  0.62173  1.0000
  C   C56       1.0  0.63480  0.38526  0.12173  1.0000
  C   C57       1.0  0.13456  0.49415  0.82573  1.0000
  C   C58       1.0  0.63456  0.99415  0.32573  1.0000
  C   C59       1.0  0.13463  0.49428  0.91297  1.0000
  C   C60       1.0  0.63463  0.99428  0.41297  1.0000
  C   C61       1.0  0.18479  0.56258  0.28856  1.0000
  C   C62       1.0  0.68479  0.06258  0.78856  1.0000
  C   C63       1.0  0.18472  0.56245  0.20658  1.0000
  C   C64       1.0  0.68472  0.06245  0.70658  1.0000
  C   C65       1.0  0.13484  0.49471  0.16582  1.0000
  C   C66       1.0  0.63484  0.99471  0.66582  1.0000
  C   C67       1.0  0.08501  0.42710  0.20705  1.0000
  C   C68       1.0  0.58501  0.92710  0.70705  1.0000
  C   C69       1.0  0.08508  0.42724  0.28903  1.0000
  C   C70       1.0  0.58508  0.92724  0.78903  1.0000
  C   C71       1.0  0.08488  0.42682  0.03618  1.0000
  C   C72       1.0  0.58488  0.92682  0.53618  1.0000
  C   C73       1.0  0.08482  0.42668  0.95419  1.0000
  C   C74       1.0  0.58482  0.92668  0.45419  1.0000
  C   C75       1.0  0.18452  0.56203  0.95373  1.0000
  C   C76       1.0  0.68452  0.06203  0.45373  1.0000
  C   C77       1.0  0.18459  0.56217  0.03571  1.0000
  C   C78       1.0  0.68459  0.06217  0.53571  1.0000
  C   C79       1.0  0.13477  0.49456  0.07693  1.0000
  C   C80       1.0  0.63477  0.99456  0.57693  1.0000
  H   H1        1.0  0.83597  0.37252  0.53087  1.0000
  H   H2        1.0  0.33597  0.87252  0.03087  1.0000
  H   H3        1.0  0.22541  0.61774  0.32174  1.0000
  H   H4        1.0  0.72541  0.11774  0.82174  1.0000
  H   H5        1.0  0.68707  0.61637  0.71269  1.0000
  H   H6        1.0  0.18707  0.11637  0.21269  1.0000
  H   H7        1.0  0.04430  0.37178  0.06974  1.0000
  H   H8        1.0  0.54430  0.87178  0.56974  1.0000
  C   C81       1.0  0.67555  0.35325  0.51658  1.0000
  C   C82       1.0  0.17555  0.85325  0.01658  1.0000
  H   H9        1.0  0.71174  0.31320  0.48676  1.0000
  H   H10       1.0  0.21174  0.81320  0.98676  1.0000
  H   H11       1.0  0.64360  0.39336  0.48230  1.0000
  H   H12       1.0  0.14360  0.89336  0.98230  1.0000
  H   H13       1.0  0.64356  0.30750  0.54671  1.0000
  H   H14       1.0  0.14356  0.80750  0.04671  1.0000
  C   C83       1.0  0.23952  0.63681  0.16125  1.0000
  C   C84       1.0  0.73952  0.13681  0.66125  1.0000
  H   H15       1.0  0.26925  0.67716  0.19726  1.0000
  H   H16       1.0  0.76925  0.17716  0.69726  1.0000
  H   H17       1.0  0.20923  0.68225  0.12923  1.0000
  H   H18       1.0  0.70923  0.18225  0.62923  1.0000
  H   H19       1.0  0.27391  0.59689  0.12929  1.0000
  H   H20       1.0  0.77391  0.09689  0.62929  1.0000
  H   H21       1.0  0.04451  0.37220  0.32259  1.0000
  H   H22       1.0  0.54451  0.87220  0.82259  1.0000
  H   H23       1.0  0.43440  0.37249  0.53082  1.0000
  H   H24       1.0  0.93440  0.87249  0.03082  1.0000
  C   C85       1.0  0.23933  0.63639  0.90840  1.0000
  C   C86       1.0  0.73933  0.13639  0.40840  1.0000
  H   H25       1.0  0.23215  0.62661  0.85374  1.0000
  H   H26       1.0  0.73215  0.12661  0.35374  1.0000
  H   H27       1.0  0.29216  0.62152  0.92177  1.0000
  H   H28       1.0  0.79216  0.12152  0.42177  1.0000
  H   H29       1.0  0.22750  0.70690  0.92170  1.0000
  H   H30       1.0  0.72750  0.20689  0.42170  1.0000
  C   C87       1.0  0.23524  0.76443  0.72201  1.0000
  C   C88       1.0  0.73524  0.26443  0.22201  1.0000
  H   H31       1.0  0.19818  0.73966  0.68495  1.0000
  H   H32       1.0  0.69818  0.23966  0.18495  1.0000
  H   H33       1.0  0.22168  0.73946  0.77267  1.0000
  H   H34       1.0  0.72168  0.23946  0.27267  1.0000
  H   H35       1.0  0.28592  0.73970  0.70838  1.0000
  H   H36       1.0  0.78592  0.23970  0.20838  1.0000
  C   C89       1.0  0.84751  0.63559  0.72702  1.0000
  C   C90       1.0  0.34751  0.13559  0.22702  1.0000
  H   H37       1.0  0.81132  0.67560  0.75687  1.0000
  H   H38       1.0  0.31133  0.17560  0.25687  1.0000
  H   H39       1.0  0.87953  0.68136  0.69694  1.0000
  H   H40       1.0  0.37952  0.18136  0.19694  1.0000
  H   H41       1.0  0.87944  0.59541  0.76128  1.0000
  H   H42       1.0  0.37944  0.09541  0.26128  1.0000
  H   H43       1.0  0.58313  0.37249  0.53084  1.0000
  H   H44       1.0  0.08313  0.87249  0.03084  1.0000
  H   H45       1.0  0.04440  0.37195  0.17386  1.0000
  H   H46       1.0  0.54440  0.87195  0.67385  1.0000
  C   C91       1.0  0.02994  0.35217  0.90936  1.0000
  C   C92       1.0  0.52994  0.85217  0.40936  1.0000
  H   H47       1.0  0.00027  0.31194  0.94565  1.0000
  H   H48       1.0  0.50027  0.81194  0.44565  1.0000
  H   H49       1.0  0.06018  0.30663  0.87742  1.0000
  H   H50       1.0  0.56018  0.80663  0.37742  1.0000
  H   H51       1.0  0.99551  0.39199  0.87736  1.0000
  H   H52       1.0  0.49551  0.89199  0.37736  1.0000
  H   H53       1.0  0.43423  0.61635  0.71266  1.0000
  H   H54       1.0  0.93423  0.11636  0.21266  1.0000
  H   H55       1.0  0.58295  0.61637  0.71268  1.0000
  H   H56       1.0  0.08295  0.11637  0.21268  1.0000
  H   H57       1.0  0.22521  0.61732  0.06890  1.0000
  H   H58       1.0  0.72521  0.11732  0.56890  1.0000
  C   C93       1.0  0.34049  0.10992  0.82743  1.0000
  C   C94       1.0  0.84049  0.60992  0.32743  1.0000
  H   H59       1.0  0.33327  0.18313  0.82027  1.0000
  H   H60       1.0  0.83327  0.68313  0.32027  1.0000
  H   H61       1.0  0.39324  0.09203  0.81590  1.0000
  H   H62       1.0  0.89325  0.59203  0.31590  1.0000
  H   H63       1.0  0.32899  0.09179  0.88018  1.0000
  H   H64       1.0  0.82899  0.59179  0.38018  1.0000
  C   C95       1.0  0.23505  0.22526  0.72212  1.0000
  C   C96       1.0  0.73505  0.72526  0.22212  1.0000
  H   H65       1.0  0.27212  0.25003  0.75918  1.0000
  H   H66       1.0  0.77212  0.75003  0.25918  1.0000
  H   H67       1.0  0.18438  0.25000  0.73574  1.0000
  H   H68       1.0  0.68438  0.75000  0.23574  1.0000
  H   H69       1.0  0.24863  0.25022  0.67146  1.0000
  H   H70       1.0  0.74863  0.75022  0.17145  1.0000
  C   C97       1.0  0.34059  0.87950  0.82738  1.0000
  C   C98       1.0  0.84059  0.37950  0.32738  1.0000
  H   H71       1.0  0.33344  0.80631  0.82018  1.0000
  H   H72       1.0  0.83344  0.30631  0.32018  1.0000
  H   H73       1.0  0.32908  0.89735  0.88014  1.0000
  H   H74       1.0  0.82908  0.39735  0.38014  1.0000
  H   H75       1.0  0.39333  0.89757  0.81585  1.0000
  H   H76       1.0  0.89333  0.39757  0.31585  1.0000
  C   C99       1.0  0.02940  0.87992  0.51639  1.0000
  C   C100      1.0  0.52940  0.37992  0.01639  1.0000
  H   H77       1.0  0.99949  0.92834  0.48653  1.0000
  H   H78       1.0  0.49949  0.42834  0.98653  1.0000
  H   H79       1.0  0.99521  0.83700  0.54645  1.0000
  H   H80       1.0  0.49521  0.33700  0.04645  1.0000
  H   H81       1.0  0.05945  0.83723  0.48216  1.0000
  H   H82       1.0  0.55945  0.33723  0.98216  1.0000
  H   H83       1.0  0.04365  0.09463  0.53077  1.0000
  H   H84       1.0  0.54365  0.59463  0.03077  1.0000
