data_image0
_chemical_formula_structural       Zn4O13C34HOCH2C2H5OCH2C2H5OCH2C2H5OCH2C2H5OCH2C2H5OCH2C2H5OCH2C2H5
_chemical_formula_sum              "Zn4 O20 C55 H50"
_cell_length_a       16.9595
_cell_length_b       16.6255
_cell_length_c       16.6255
_cell_angle_alpha    89.9719
_cell_angle_beta     89.9745
_cell_angle_gamma    90.0226

_space_group_name_H-M_alt    "P 1"
_space_group_IT_number       1

loop_
  _space_group_symop_operation_xyz
  'x, y, z'

loop_
  _atom_site_type_symbol
  _atom_site_label
  _atom_site_symmetry_multiplicity
  _atom_site_fract_x
  _atom_site_fract_y
  _atom_site_fract_z
  _atom_site_occupancy
  Zn  Zn1       1.0  0.20839  0.67894  0.54398  1.0000
  Zn  Zn2       1.0  0.20829  0.54409  0.67882  1.0000
  Zn  Zn3       1.0  0.07621  0.67891  0.67881  1.0000
  Zn  Zn4       1.0  0.07617  0.54415  0.54404  1.0000
  O   O1        1.0  0.14227  0.61152  0.61141  1.0000
  O   O2        1.0  0.31899  0.66103  0.56185  1.0000
  O   O3        1.0  0.19074  0.56194  0.79165  1.0000
  O   O4        1.0  0.09380  0.79175  0.66091  1.0000
  O   O5        1.0  0.31892  0.56197  0.66091  1.0000
  O   O6        1.0  0.19092  0.79176  0.56185  1.0000
  O   O7        1.0  0.09370  0.66100  0.79165  1.0000
  O   O8        1.0  0.96560  0.66105  0.66096  1.0000
  O   O9        1.0  0.09374  0.56206  0.43120  1.0000
  O   O10       1.0  0.96557  0.56204  0.56194  1.0000
  O   O11       1.0  0.19088  0.66109  0.43116  1.0000
  O   O12       1.0  0.19071  0.43127  0.66096  1.0000
  O   O13       1.0  0.09364  0.43131  0.56194  1.0000
  C   C1        1.0  0.93690  0.61155  0.61145  1.0000
  C   C2        1.0  0.84905  0.61154  0.61145  1.0000
  C   C3        1.0  0.47752  0.55999  0.66302  1.0000
  C   C4        1.0  0.47762  0.66299  0.55971  1.0000
  C   C5        1.0  0.56017  0.66300  0.55973  1.0000
  C   C6        1.0  0.60139  0.61151  0.61139  1.0000
  C   C7        1.0  0.56007  0.56000  0.66304  1.0000
  C   C8        1.0  0.60149  0.71450  0.50808  1.0000
  C   C9        1.0  0.68404  0.71452  0.50809  1.0000
  C   C10       1.0  0.72527  0.66303  0.55976  1.0000
  C   C11       1.0  0.68395  0.61152  0.61141  1.0000
  C   C12       1.0  0.72517  0.56002  0.66308  1.0000
  C   C13       1.0  0.68385  0.50851  0.71473  1.0000
  C   C14       1.0  0.60130  0.50851  0.71471  1.0000
  C   C15       1.0  0.80782  0.66304  0.55978  1.0000
  C   C16       1.0  0.80773  0.56003  0.66310  1.0000
  C   C17       1.0  0.14218  0.40203  0.61144  1.0000
  C   C18       1.0  0.14222  0.31241  0.61142  1.0000
  C   C19       1.0  0.14225  0.23963  0.61141  1.0000
  C   C20       1.0  0.14229  0.14832  0.61139  1.0000
  C   C21       1.0  0.14234  0.07554  0.61138  1.0000
  C   C22       1.0  0.14238  0.98423  0.61136  1.0000
  C   C23       1.0  0.34844  0.61150  0.61137  1.0000
  C   C24       1.0  0.43629  0.61148  0.61135  1.0000
  C   C25       1.0  0.14232  0.61158  0.40110  1.0000
  C   C26       1.0  0.14234  0.61161  0.31148  1.0000
  C   C27       1.0  0.14237  0.82183  0.61137  1.0000
  C   C28       1.0  0.14242  0.91145  0.61135  1.0000
  C   C29       1.0  0.14238  0.61170  0.98331  1.0000
  C   C30       1.0  0.14237  0.61167  0.07462  1.0000
  C   C31       1.0  0.14236  0.61165  0.14739  1.0000
  C   C32       1.0  0.14235  0.61163  0.23871  1.0000
  C   C33       1.0  0.14226  0.61152  0.82090  1.0000
  C   C34       1.0  0.14239  0.61172  0.91052  1.0000
  H   H1        1.0  0.44405  0.70491  0.51764  1.0000
  O   O14       1.0  0.84800  0.71295  0.50953  1.0000
  C   C35       1.0  0.89578  0.66698  0.45756  1.0000
  H   H2        1.0  0.87089  0.60346  0.45269  1.0000
  H   H3        1.0  0.95833  0.66424  0.48252  1.0000
  C   C36       1.0  0.92769  0.78426  0.37965  1.0000
  C   C37       1.0  0.89712  0.70626  0.37367  1.0000
  H   H4        1.0  0.92852  0.80849  0.32790  1.0000
  H   H5        1.0  0.89550  0.81524  0.41466  1.0000
  H   H6        1.0  0.97981  0.78197  0.40045  1.0000
  H   H7        1.0  0.84500  0.70855  0.35288  1.0000
  H   H8        1.0  0.92930  0.67529  0.33865  1.0000
  O   O15       1.0  0.56120  0.45856  0.76499  1.0000
  C   C38       1.0  0.58133  0.47626  0.84533  1.0000
  H   H9        1.0  0.60403  0.54069  0.84930  1.0000
  H   H10       1.0  0.62922  0.43307  0.86649  1.0000
  C   C39       1.0  0.48007  0.38781  0.89426  1.0000
  C   C40       1.0  0.50795  0.46693  0.89914  1.0000
  H   H11       1.0  0.43481  0.38205  0.92745  1.0000
  H   H12       1.0  0.46651  0.37587  0.84013  1.0000
  H   H13       1.0  0.51999  0.35182  0.91189  1.0000
  H   H14       1.0  0.46804  0.50292  0.88149  1.0000
  H   H15       1.0  0.52150  0.47887  0.95326  1.0000
  O   O16       1.0  0.43742  0.51004  0.71331  1.0000
  C   C41       1.0  0.45756  0.52775  0.79364  1.0000
  H   H16       1.0  0.48027  0.59218  0.79760  1.0000
  H   H17       1.0  0.50546  0.48456  0.81480  1.0000
  C   C42       1.0  0.35631  0.43930  0.84259  1.0000
  C   C43       1.0  0.38419  0.51843  0.84746  1.0000
  H   H18       1.0  0.31105  0.43354  0.87579  1.0000
  H   H19       1.0  0.34274  0.42736  0.78847  1.0000
  H   H20       1.0  0.39623  0.40331  0.86022  1.0000
  H   H21       1.0  0.34428  0.55441  0.82982  1.0000
  H   H22       1.0  0.39776  0.53037  0.90158  1.0000
  O   O17       1.0  0.84774  0.50989  0.71320  1.0000
  C   C44       1.0  0.82753  0.42951  0.69573  1.0000
  H   H23       1.0  0.80488  0.42535  0.63132  1.0000
  H   H24       1.0  0.77958  0.40848  0.73899  1.0000
  C   C45       1.0  0.92867  0.38082  0.78433  1.0000
  C   C46       1.0  0.90085  0.37571  0.70522  1.0000
  H   H25       1.0  0.97389  0.34763  0.79019  1.0000
  H   H26       1.0  0.94227  0.43497  0.79611  1.0000
  H   H27       1.0  0.88870  0.36330  0.82037  1.0000
  H   H28       1.0  0.94081  0.39324  0.66919  1.0000
  H   H29       1.0  0.88725  0.32156  0.69344  1.0000
  O   O18       1.0  0.72387  0.45838  0.76483  1.0000
  C   C47       1.0  0.70367  0.37799  0.74736  1.0000
  H   H30       1.0  0.68101  0.37383  0.68295  1.0000
  H   H31       1.0  0.65573  0.35696  0.79063  1.0000
  C   C48       1.0  0.80482  0.32931  0.83595  1.0000
  C   C49       1.0  0.77699  0.32420  0.75684  1.0000
  H   H32       1.0  0.85004  0.29612  0.84180  1.0000
  H   H33       1.0  0.81842  0.38346  0.84772  1.0000
  H   H34       1.0  0.76486  0.31178  0.87199  1.0000
  H   H35       1.0  0.81695  0.34173  0.72080  1.0000
  H   H36       1.0  0.76339  0.27004  0.74506  1.0000
  O   O19       1.0  0.56135  0.76441  0.45785  1.0000
  C   C50       1.0  0.51364  0.71843  0.40584  1.0000
  H   H37       1.0  0.50124  0.65736  0.43438  1.0000
  H   H38       1.0  0.54548  0.70950  0.34610  1.0000
  C   C51       1.0  0.45046  0.83777  0.35610  1.0000
  C   C52       1.0  0.43523  0.76276  0.39116  1.0000
  H   H39       1.0  0.40210  0.86512  0.34704  1.0000
  H   H40       1.0  0.48261  0.86875  0.39114  1.0000
  H   H41       1.0  0.47700  0.83032  0.30632  1.0000
  H   H42       1.0  0.40871  0.77022  0.44093  1.0000
  H   H43       1.0  0.40308  0.73179  0.35613  1.0000
  O   O20       1.0  0.72406  0.76463  0.45790  1.0000
  C   C53       1.0  0.66996  0.81007  0.41228  1.0000
  H   H44       1.0  0.61110  0.81288  0.44528  1.0000
  H   H45       1.0  0.66122  0.78046  0.35109  1.0000
  C   C54       1.0  0.77451  0.89241  0.35998  1.0000
  C   C55       1.0  0.70221  0.89588  0.40052  1.0000
  H   H46       1.0  0.79440  0.94534  0.35273  1.0000
  H   H47       1.0  0.81095  0.86180  0.39072  1.0000
  H   H48       1.0  0.76721  0.86774  0.30900  1.0000
  H   H49       1.0  0.70951  0.92054  0.45151  1.0000
  H   H50       1.0  0.66577  0.92649  0.36980  1.0000
