data_image0
_chemical_formula_structural       VO4VO6C24H3ClHClH2Cl2VO4VO6C24H3ClHClH2Cl2
_chemical_formula_sum              "V4 O20 C48 H12 Cl8"
_cell_length_a       13.6358
_cell_length_b       17.983
_cell_length_c       14.1255
_cell_angle_alpha    96.114
_cell_angle_beta     100.399
_cell_angle_gamma    102.452

_space_group_name_H-M_alt    "P 1"
_space_group_IT_number       1

loop_
  _space_group_symop_operation_xyz
  'x, y, z'

loop_
  _atom_site_type_symbol
  _atom_site_label
  _atom_site_symmetry_multiplicity
  _atom_site_fract_x
  _atom_site_fract_y
  _atom_site_fract_z
  _atom_site_occupancy
  V   V1        1.0  0.00690  0.89524  0.69962  1.0000
  O   O1        1.0  0.01011  0.00571  0.70576  1.0000
  O   O2        1.0  0.03355  0.79164  0.70128  1.0000
  O   O3        1.0  0.03878  0.89715  0.56880  1.0000
  O   O4        1.0  0.00484  0.89946  0.83915  1.0000
  V   V2        1.0  0.26377  0.90842  0.71636  1.0000
  O   O5        1.0  0.37926  0.86634  0.66291  1.0000
  O   O6        1.0  0.16631  0.93733  0.75307  1.0000
  O   O7        1.0  0.34872  0.01203  0.71470  1.0000
  O   O8        1.0  0.20186  0.79796  0.71023  1.0000
  O   O9        1.0  0.20713  0.90420  0.57683  1.0000
  O   O10       1.0  0.34349  0.90651  0.84718  1.0000
  C   C1        1.0  0.11139  0.76637  0.70592  1.0000
  C   C2        1.0  0.09259  0.68167  0.70640  1.0000
  C   C3        1.0  0.11807  0.90096  0.53693  1.0000
  C   C4        1.0  0.10351  0.90184  0.42998  1.0000
  C   C5        1.0  0.49308  0.63801  0.70181  1.0000
  C   C6        1.0  0.47542  0.55843  0.70226  1.0000
  C   C7        1.0  0.05727  0.52251  0.70730  1.0000
  C   C8        1.0  0.15679  0.56618  0.71189  1.0000
  C   C9        1.0  0.17445  0.64576  0.71143  1.0000
  C   C10       1.0  0.08557  0.24524  0.71372  1.0000
  C   C11       1.0  0.06790  0.16565  0.71418  1.0000
  C   C12       1.0  0.38654  0.15791  0.70455  1.0000
  C   C13       1.0  0.40420  0.23749  0.70409  1.0000
  C   C14       1.0  0.00372  0.28115  0.70867  1.0000
  C   C15       1.0  0.02287  0.36744  0.70819  1.0000
  C   C16       1.0  0.03812  0.43622  0.70780  1.0000
  C   C17       1.0  0.07683  0.90344  0.23416  1.0000
  C   C18       1.0  0.48416  0.90023  0.18183  1.0000
  C   C19       1.0  0.46931  0.90112  0.07287  1.0000
  C   C20       1.0  0.09168  0.90255  0.34313  1.0000
  C   C21       1.0  0.43921  0.03729  0.71007  1.0000
  C   C22       1.0  0.46839  0.12199  0.70958  1.0000
  C   C23       1.0  0.43253  0.90270  0.87906  1.0000
  C   C24       1.0  0.45747  0.90183  0.98601  1.0000
  H   H1        1.0  0.42643  0.66725  0.69772  1.0000
  H   H2        1.0  0.25548  0.68130  0.71516  1.0000
  H   H3        1.0  0.14501  0.90686  0.19713  1.0000
  Cl  Cl1       1.0  0.37888  0.89495  0.23899  1.0000
  H   H4        1.0  0.33755  0.26673  0.69999  1.0000
  Cl  Cl2       1.0  0.35032  0.50354  0.69649  1.0000
  H   H5        1.0  0.30551  0.12235  0.70082  1.0000
  H   H6        1.0  0.16660  0.28077  0.71745  1.0000
  Cl  Cl3       1.0  0.25968  0.52102  0.71822  1.0000
  Cl  Cl4       1.0  0.17081  0.12050  0.72051  1.0000
  V   V3        1.0  0.50690  0.89524  0.69962  1.0000
  O   O11       1.0  0.51011  0.00571  0.70576  1.0000
  O   O12       1.0  0.53355  0.79164  0.70128  1.0000
  O   O13       1.0  0.53878  0.89715  0.56880  1.0000
  O   O14       1.0  0.50484  0.89946  0.83915  1.0000
  V   V4        1.0  0.76377  0.90842  0.71636  1.0000
  O   O15       1.0  0.87926  0.86634  0.66291  1.0000
  O   O16       1.0  0.66631  0.93733  0.75307  1.0000
  O   O17       1.0  0.84872  0.01203  0.71470  1.0000
  O   O18       1.0  0.70186  0.79796  0.71023  1.0000
  O   O19       1.0  0.70713  0.90420  0.57683  1.0000
  O   O20       1.0  0.84349  0.90651  0.84718  1.0000
  C   C25       1.0  0.61139  0.76637  0.70592  1.0000
  C   C26       1.0  0.59259  0.68167  0.70640  1.0000
  C   C27       1.0  0.61807  0.90096  0.53693  1.0000
  C   C28       1.0  0.60351  0.90184  0.42998  1.0000
  C   C29       1.0  0.99308  0.63801  0.70181  1.0000
  C   C30       1.0  0.97542  0.55843  0.70226  1.0000
  C   C31       1.0  0.55727  0.52251  0.70730  1.0000
  C   C32       1.0  0.65679  0.56618  0.71189  1.0000
  C   C33       1.0  0.67445  0.64576  0.71143  1.0000
  C   C34       1.0  0.58557  0.24524  0.71372  1.0000
  C   C35       1.0  0.56790  0.16565  0.71418  1.0000
  C   C36       1.0  0.88654  0.15791  0.70455  1.0000
  C   C37       1.0  0.90420  0.23749  0.70409  1.0000
  C   C38       1.0  0.50372  0.28115  0.70867  1.0000
  C   C39       1.0  0.52287  0.36744  0.70819  1.0000
  C   C40       1.0  0.53812  0.43622  0.70780  1.0000
  C   C41       1.0  0.57683  0.90344  0.23416  1.0000
  C   C42       1.0  0.98416  0.90023  0.18183  1.0000
  C   C43       1.0  0.96931  0.90112  0.07287  1.0000
  C   C44       1.0  0.59168  0.90255  0.34313  1.0000
  C   C45       1.0  0.93921  0.03729  0.71007  1.0000
  C   C46       1.0  0.96839  0.12199  0.70958  1.0000
  C   C47       1.0  0.93253  0.90270  0.87906  1.0000
  C   C48       1.0  0.95747  0.90183  0.98601  1.0000
  H   H7        1.0  0.92643  0.66725  0.69772  1.0000
  H   H8        1.0  0.75548  0.68130  0.71516  1.0000
  H   H9        1.0  0.64501  0.90686  0.19713  1.0000
  Cl  Cl5       1.0  0.87888  0.89495  0.23899  1.0000
  H   H10       1.0  0.83755  0.26673  0.69999  1.0000
  Cl  Cl6       1.0  0.85032  0.50354  0.69649  1.0000
  H   H11       1.0  0.80551  0.12235  0.70082  1.0000
  H   H12       1.0  0.66660  0.28077  0.71745  1.0000
  Cl  Cl7       1.0  0.75968  0.52102  0.71822  1.0000
  Cl  Cl8       1.0  0.67081  0.12050  0.72051  1.0000
