data_image0
_chemical_formula_structural       VO4VO6C24H10VO4VO6C24H10
_chemical_formula_sum              "V4 O20 C48 H20"
_cell_length_a       13.6358
_cell_length_b       13.5635
_cell_length_c       14.1255
_cell_angle_alpha    110.576
_cell_angle_beta     100.399
_cell_angle_gamma    104.707

_space_group_name_H-M_alt    "P 1"
_space_group_IT_number       1

loop_
  _space_group_symop_operation_xyz
  'x, y, z'

loop_
  _atom_site_type_symbol
  _atom_site_label
  _atom_site_symmetry_multiplicity
  _atom_site_fract_x
  _atom_site_fract_y
  _atom_site_fract_z
  _atom_site_occupancy
  V   V1        1.0  0.49067  0.84746  0.65952  1.0000
  O   O1        1.0  0.01099  0.00831  0.70794  1.0000
  O   O2        1.0  0.00127  0.69660  0.62152  1.0000
  O   O3        1.0  0.02285  0.85024  0.52943  1.0000
  O   O4        1.0  0.48926  0.85361  0.80067  1.0000
  V   V2        1.0  0.24958  0.86665  0.68131  1.0000
  O   O5        1.0  0.35855  0.80537  0.61174  1.0000
  O   O6        1.0  0.15660  0.90874  0.72909  1.0000
  O   O7        1.0  0.35059  0.01751  0.71931  1.0000
  O   O8        1.0  0.17056  0.70580  0.63289  1.0000
  O   O9        1.0  0.19229  0.86050  0.54016  1.0000
  O   O10       1.0  0.32901  0.86387  0.81140  1.0000
  C   C1        1.0  0.07520  0.65981  0.61648  1.0000
  C   C2        1.0  0.04327  0.53648  0.58455  1.0000
  C   C3        1.0  0.01196  0.46297  0.47730  1.0000
  C   C4        1.0  0.48199  0.34710  0.44730  1.0000
  C   C5        1.0  0.48331  0.30473  0.52454  1.0000
  C   C6        1.0  0.01461  0.37823  0.63179  1.0000
  C   C7        1.0  0.04460  0.49412  0.66179  1.0000
  C   C8        1.0  0.01595  0.33587  0.70904  1.0000
  C   C9        1.0  0.04725  0.40938  0.81628  1.0000
  C   C10       1.0  0.07724  0.52525  0.84628  1.0000
  C   C11       1.0  0.07591  0.56763  0.76904  1.0000
  C   C12       1.0  0.48596  0.21999  0.67903  1.0000
  C   C13       1.0  0.01860  0.25113  0.86352  1.0000
  C   C14       1.0  0.04858  0.36701  0.89352  1.0000
  C   C15       1.0  0.10273  0.85579  0.49902  1.0000
  C   C16       1.0  0.08830  0.85706  0.39240  1.0000
  C   C17       1.0  0.06187  0.85940  0.19720  1.0000
  C   C18       1.0  0.46870  0.85472  0.14363  1.0000
  C   C19       1.0  0.45399  0.85602  0.03502  1.0000
  C   C20       1.0  0.07658  0.85810  0.30583  1.0000
  C   C21       1.0  0.44498  0.05430  0.72434  1.0000
  C   C22       1.0  0.48729  0.17763  0.75628  1.0000
  C   C23       1.0  0.41746  0.85832  0.84182  1.0000
  C   C24       1.0  0.44226  0.85705  0.94843  1.0000
  H   H1        1.0  0.46048  0.16015  0.59171  1.0000
  H   H2        1.0  0.39998  0.84973  0.17935  1.0000
  H   H3        1.0  0.13058  0.86438  0.16148  1.0000
  H   H4        1.0  0.01090  0.49748  0.41442  1.0000
  H   H5        1.0  0.45890  0.21038  0.50011  1.0000
  H   H6        1.0  0.45650  0.28726  0.35998  1.0000
  H   H7        1.0  0.10032  0.66198  0.79346  1.0000
  H   H8        1.0  0.07407  0.42687  0.98085  1.0000
  H   H9        1.0  0.01968  0.21664  0.92642  1.0000
  H   H10       1.0  0.10273  0.58510  0.93361  1.0000
  V   V3        1.0  0.99067  0.84746  0.65952  1.0000
  O   O11       1.0  0.51099  0.00831  0.70794  1.0000
  O   O12       1.0  0.50127  0.69660  0.62152  1.0000
  O   O13       1.0  0.52285  0.85024  0.52943  1.0000
  O   O14       1.0  0.98926  0.85361  0.80067  1.0000
  V   V4        1.0  0.74958  0.86665  0.68131  1.0000
  O   O15       1.0  0.85855  0.80537  0.61174  1.0000
  O   O16       1.0  0.65660  0.90874  0.72909  1.0000
  O   O17       1.0  0.85059  0.01751  0.71931  1.0000
  O   O18       1.0  0.67056  0.70580  0.63289  1.0000
  O   O19       1.0  0.69229  0.86050  0.54016  1.0000
  O   O20       1.0  0.82901  0.86387  0.81140  1.0000
  C   C25       1.0  0.57520  0.65981  0.61648  1.0000
  C   C26       1.0  0.54327  0.53648  0.58455  1.0000
  C   C27       1.0  0.51196  0.46297  0.47730  1.0000
  C   C28       1.0  0.98199  0.34710  0.44730  1.0000
  C   C29       1.0  0.98331  0.30473  0.52454  1.0000
  C   C30       1.0  0.51461  0.37823  0.63179  1.0000
  C   C31       1.0  0.54460  0.49412  0.66179  1.0000
  C   C32       1.0  0.51595  0.33587  0.70904  1.0000
  C   C33       1.0  0.54725  0.40938  0.81628  1.0000
  C   C34       1.0  0.57724  0.52525  0.84628  1.0000
  C   C35       1.0  0.57591  0.56763  0.76904  1.0000
  C   C36       1.0  0.98596  0.21999  0.67903  1.0000
  C   C37       1.0  0.51860  0.25113  0.86352  1.0000
  C   C38       1.0  0.54858  0.36701  0.89352  1.0000
  C   C39       1.0  0.60273  0.85579  0.49902  1.0000
  C   C40       1.0  0.58830  0.85706  0.39240  1.0000
  C   C41       1.0  0.56187  0.85940  0.19720  1.0000
  C   C42       1.0  0.96870  0.85472  0.14363  1.0000
  C   C43       1.0  0.95399  0.85602  0.03502  1.0000
  C   C44       1.0  0.57658  0.85810  0.30583  1.0000
  C   C45       1.0  0.94498  0.05430  0.72434  1.0000
  C   C46       1.0  0.98729  0.17763  0.75628  1.0000
  C   C47       1.0  0.91746  0.85832  0.84182  1.0000
  C   C48       1.0  0.94226  0.85705  0.94843  1.0000
  H   H11       1.0  0.96048  0.16015  0.59171  1.0000
  H   H12       1.0  0.89998  0.84973  0.17935  1.0000
  H   H13       1.0  0.63058  0.86438  0.16148  1.0000
  H   H14       1.0  0.51090  0.49748  0.41442  1.0000
  H   H15       1.0  0.95890  0.21038  0.50011  1.0000
  H   H16       1.0  0.95650  0.28726  0.35998  1.0000
  H   H17       1.0  0.60032  0.66198  0.79346  1.0000
  H   H18       1.0  0.57407  0.42687  0.98085  1.0000
  H   H19       1.0  0.51968  0.21664  0.92642  1.0000
  H   H20       1.0  0.60273  0.58510  0.93361  1.0000
