data_image0
_chemical_formula_structural       Zn4O13C18H2Br2H3Br3HBr
_chemical_formula_sum              "Zn4 O13 C18 H6 Br6"
_cell_length_a       11.1694
_cell_length_b       12.6453
_cell_length_c       11.1694
_cell_angle_alpha    90.0344
_cell_angle_beta     90.0198
_cell_angle_gamma    90.0135

_space_group_name_H-M_alt    "P 1"
_space_group_IT_number       1

loop_
  _space_group_symop_operation_xyz
  'x, y, z'

loop_
  _atom_site_type_symbol
  _atom_site_label
  _atom_site_symmetry_multiplicity
  _atom_site_fract_x
  _atom_site_fract_y
  _atom_site_fract_z
  _atom_site_occupancy
  Zn  Zn1       1.0  0.83494  0.57807  0.67853  1.0000
  Zn  Zn2       1.0  0.83482  0.40076  0.47784  1.0000
  Zn  Zn3       1.0  0.63423  0.57801  0.47786  1.0000
  Zn  Zn4       1.0  0.63423  0.40085  0.67848  1.0000
  O   O1        1.0  0.73456  0.48942  0.57817  1.0000
  O   O2        1.0  0.00288  0.55454  0.65191  1.0000
  O   O3        1.0  0.80817  0.42421  0.30989  1.0000
  O   O4        1.0  0.66090  0.72636  0.50451  1.0000
  O   O5        1.0  0.00279  0.42427  0.50447  1.0000
  O   O6        1.0  0.80837  0.72641  0.65194  1.0000
  O   O7        1.0  0.66079  0.55443  0.30991  1.0000
  O   O8        1.0  0.46628  0.55451  0.50446  1.0000
  O   O9        1.0  0.66090  0.42442  0.84644  1.0000
  O   O10       1.0  0.46628  0.42436  0.65186  1.0000
  O   O11       1.0  0.80837  0.55462  0.84647  1.0000
  O   O12       1.0  0.80816  0.25243  0.50442  1.0000
  O   O13       1.0  0.66079  0.25249  0.65184  1.0000
  C   C1        1.0  0.42273  0.48944  0.57816  1.0000
  C   C2        1.0  0.28933  0.48942  0.57818  1.0000
  C   C3        1.0  0.73450  0.21399  0.57815  1.0000
  C   C4        1.0  0.73458  0.09616  0.57817  1.0000
  C   C5        1.0  0.82715  0.92860  0.48525  1.0000
  C   C6        1.0  0.82745  0.05116  0.48548  1.0000
  C   C7        1.0  0.76889  0.05179  0.70468  1.0000
  C   C8        1.0  0.76962  0.92920  0.70419  1.0000
  C   C9        1.0  0.60767  0.92883  0.54584  1.0000
  C   C10       1.0  0.60828  0.05143  0.54300  1.0000
  C   C11       1.0  0.04760  0.48940  0.57819  1.0000
  C   C12       1.0  0.18100  0.48940  0.57820  1.0000
  C   C13       1.0  0.73465  0.48954  0.89122  1.0000
  C   C14       1.0  0.73469  0.48959  0.02462  1.0000
  C   C15       1.0  0.73465  0.76593  0.57823  1.0000
  C   C16       1.0  0.73469  0.88376  0.57825  1.0000
  C   C17       1.0  0.73453  0.48938  0.26635  1.0000
  C   C18       1.0  0.73473  0.48963  0.13295  1.0000
  H   H1        1.0  0.80598  0.08115  0.39167  1.0000
  H   H2        1.0  0.80595  0.89904  0.39117  1.0000
  Br  Br1       1.0  0.98311  0.87739  0.52058  1.0000
  Br  Br2       1.0  0.55567  0.87713  0.39476  1.0000
  H   H3        1.0  0.53878  0.89983  0.61358  1.0000
  H   H4        1.0  0.92152  0.08057  0.50692  1.0000
  H   H5        1.0  0.86068  0.08259  0.73260  1.0000
  Br  Br3       1.0  0.66224  0.87975  0.82361  1.0000
  Br  Br4       1.0  0.66005  0.10036  0.82328  1.0000
  Br  Br5       1.0  0.48726  0.10247  0.64763  1.0000
  H   H6        1.0  0.86246  0.90069  0.73165  1.0000
  Br  Br6       1.0  0.56516  0.09975  0.38783  1.0000
