data_image0
_chemical_formula_structural       VO4VO6C18HOC2H7OC2H5OC2H5OC2H6VO4VO6C18HOC2H7OC2H5OC2H5OC2H6
_chemical_formula_sum              "V4 O28 C52 H48"
_cell_length_a       13.6358
_cell_length_b       15.3011
_cell_length_c       9.58288
_cell_angle_alpha    92.7958
_cell_angle_beta     111.207
_cell_angle_gamma    104.178

_space_group_name_H-M_alt    "P 1"
_space_group_IT_number       1

loop_
  _space_group_symop_operation_xyz
  'x, y, z'

loop_
  _atom_site_type_symbol
  _atom_site_label
  _atom_site_symmetry_multiplicity
  _atom_site_fract_x
  _atom_site_fract_y
  _atom_site_fract_z
  _atom_site_occupancy
  V   V1        1.0  0.43993  0.87562  0.53295  1.0000
  O   O1        1.0  0.44890  0.00637  0.54230  1.0000
  O   O2        1.0  0.46273  0.75300  0.53569  1.0000
  O   O3        1.0  0.44457  0.87771  0.32945  1.0000
  O   O4        1.0  0.46718  0.88080  0.74997  1.0000
  V   V2        1.0  0.20083  0.89124  0.55896  1.0000
  O   O5        1.0  0.30346  0.84136  0.47589  1.0000
  O   O6        1.0  0.11221  0.92550  0.61602  1.0000
  O   O7        1.0  0.28964  0.01386  0.55621  1.0000
  O   O8        1.0  0.13317  0.76049  0.54960  1.0000
  O   O9        1.0  0.11489  0.88606  0.34193  1.0000
  O   O10       1.0  0.30779  0.88916  0.76245  1.0000
  C   C1        1.0  0.04052  0.72311  0.54294  1.0000
  C   C2        1.0  0.01839  0.62286  0.54383  1.0000
  C   C3        1.0  0.41615  0.57118  0.53676  1.0000
  C   C4        1.0  0.39536  0.47699  0.53759  1.0000
  C   C5        1.0  0.47681  0.43449  0.54549  1.0000
  C   C6        1.0  0.07905  0.48618  0.55255  1.0000
  C   C7        1.0  0.09984  0.58036  0.55171  1.0000
  C   C8        1.0  0.03571  0.28987  0.55429  1.0000
  C   C9        1.0  0.01493  0.19567  0.55513  1.0000
  C   C10       1.0  0.33124  0.18650  0.54017  1.0000
  C   C11       1.0  0.35202  0.28068  0.53933  1.0000
  C   C12       1.0  0.45427  0.33236  0.54640  1.0000
  C   C13       1.0  0.01736  0.88218  0.27987  1.0000
  C   C14       1.0  0.48051  0.88307  0.11351  1.0000
  C   C15       1.0  0.38018  0.04375  0.54897  1.0000
  C   C16       1.0  0.41269  0.14399  0.54807  1.0000
  C   C17       1.0  0.40334  0.88468  0.81204  1.0000
  C   C18       1.0  0.45057  0.88379  0.97841  1.0000
  H   H1        1.0  0.14536  0.45156  0.55897  1.0000
  O   O11       1.0  0.19924  0.63055  0.55885  1.0000
  C   C19       1.0  0.39444  0.67931  0.70164  1.0000
  C   C20       1.0  0.28194  0.62245  0.69377  1.0000
  H   H2        1.0  0.46134  0.67276  0.81069  1.0000
  H   H3        1.0  0.39539  0.75395  0.69978  1.0000
  H   H4        1.0  0.40987  0.65326  0.60019  1.0000
  H   H5        1.0  0.26644  0.64842  0.79520  1.0000
  H   H6        1.0  0.28104  0.54782  0.69555  1.0000
  H   H7        1.0  0.08124  0.16106  0.56152  1.0000
  H   H8        1.0  0.28570  0.31529  0.53291  1.0000
  O   O12       1.0  0.33707  0.61255  0.52890  1.0000
  C   C21       1.0  0.22204  0.70137  0.38892  1.0000
  C   C22       1.0  0.31163  0.65459  0.39767  1.0000
  H   H9        1.0  0.20143  0.73536  0.28282  1.0000
  H   H10       1.0  0.25288  0.75509  0.49334  1.0000
  H   H11       1.0  0.14543  0.64824  0.38409  1.0000
  H   H12       1.0  0.38827  0.70766  0.40246  1.0000
  H   H13       1.0  0.28071  0.60085  0.29326  1.0000
  O   O13       1.0  0.23201  0.13623  0.53353  1.0000
  C   C23       1.0  0.13378  0.03677  0.65618  1.0000
  C   C24       1.0  0.24622  0.09364  0.66385  1.0000
  H   H14       1.0  0.14523  0.00233  0.76154  1.0000
  H   H15       1.0  0.09370  0.98258  0.55102  1.0000
  H   H16       1.0  0.07916  0.08335  0.65033  1.0000
  H   H17       1.0  0.30093  0.04713  0.66975  1.0000
  H   H18       1.0  0.28621  0.14783  0.76899  1.0000
  O   O14       1.0  0.13504  0.34018  0.56135  1.0000
  C   C25       1.0  0.29698  0.46395  0.69945  1.0000
  C   C26       1.0  0.18451  0.40705  0.69161  1.0000
  H   H19       1.0  0.33702  0.51801  0.80477  1.0000
  H   H20       1.0  0.28564  0.49854  0.59425  1.0000
  H   H21       1.0  0.35159  0.41737  0.70517  1.0000
  H   H22       1.0  0.12984  0.45356  0.68594  1.0000
  H   H23       1.0  0.19593  0.37244  0.79681  1.0000
  H   H24       1.0  0.31211  0.43492  0.53183  1.0000
  V   V3        1.0  0.93993  0.87562  0.53295  1.0000
  O   O15       1.0  0.94890  0.00637  0.54230  1.0000
  O   O16       1.0  0.96273  0.75300  0.53569  1.0000
  O   O17       1.0  0.94457  0.87771  0.32945  1.0000
  O   O18       1.0  0.96718  0.88080  0.74997  1.0000
  V   V4        1.0  0.70083  0.89124  0.55896  1.0000
  O   O19       1.0  0.80346  0.84136  0.47589  1.0000
  O   O20       1.0  0.61221  0.92550  0.61602  1.0000
  O   O21       1.0  0.78964  0.01386  0.55621  1.0000
  O   O22       1.0  0.63317  0.76049  0.54960  1.0000
  O   O23       1.0  0.61489  0.88606  0.34193  1.0000
  O   O24       1.0  0.80779  0.88916  0.76245  1.0000
  C   C27       1.0  0.54052  0.72311  0.54294  1.0000
  C   C28       1.0  0.51839  0.62286  0.54383  1.0000
  C   C29       1.0  0.91615  0.57118  0.53676  1.0000
  C   C30       1.0  0.89536  0.47699  0.53759  1.0000
  C   C31       1.0  0.97681  0.43449  0.54549  1.0000
  C   C32       1.0  0.57905  0.48618  0.55255  1.0000
  C   C33       1.0  0.59984  0.58036  0.55171  1.0000
  C   C34       1.0  0.53571  0.28987  0.55429  1.0000
  C   C35       1.0  0.51493  0.19567  0.55513  1.0000
  C   C36       1.0  0.83124  0.18650  0.54017  1.0000
  C   C37       1.0  0.85202  0.28068  0.53933  1.0000
  C   C38       1.0  0.95427  0.33236  0.54640  1.0000
  C   C39       1.0  0.51736  0.88218  0.27987  1.0000
  C   C40       1.0  0.98051  0.88307  0.11351  1.0000
  C   C41       1.0  0.88018  0.04375  0.54897  1.0000
  C   C42       1.0  0.91269  0.14399  0.54807  1.0000
  C   C43       1.0  0.90334  0.88468  0.81204  1.0000
  C   C44       1.0  0.95057  0.88379  0.97841  1.0000
  H   H25       1.0  0.64536  0.45156  0.55897  1.0000
  O   O25       1.0  0.69924  0.63055  0.55885  1.0000
  C   C45       1.0  0.89444  0.67931  0.70164  1.0000
  C   C46       1.0  0.78194  0.62245  0.69377  1.0000
  H   H26       1.0  0.96134  0.67276  0.81069  1.0000
  H   H27       1.0  0.89539  0.75395  0.69978  1.0000
  H   H28       1.0  0.90987  0.65326  0.60019  1.0000
  H   H29       1.0  0.76644  0.64842  0.79520  1.0000
  H   H30       1.0  0.78104  0.54782  0.69555  1.0000
  H   H31       1.0  0.58124  0.16106  0.56152  1.0000
  H   H32       1.0  0.78570  0.31529  0.53291  1.0000
  O   O26       1.0  0.83707  0.61255  0.52890  1.0000
  C   C47       1.0  0.72204  0.70137  0.38892  1.0000
  C   C48       1.0  0.81163  0.65459  0.39767  1.0000
  H   H33       1.0  0.70143  0.73536  0.28282  1.0000
  H   H34       1.0  0.75288  0.75509  0.49334  1.0000
  H   H35       1.0  0.64543  0.64824  0.38409  1.0000
  H   H36       1.0  0.88827  0.70766  0.40246  1.0000
  H   H37       1.0  0.78071  0.60085  0.29326  1.0000
  O   O27       1.0  0.73201  0.13623  0.53353  1.0000
  C   C49       1.0  0.63378  0.03677  0.65618  1.0000
  C   C50       1.0  0.74622  0.09364  0.66385  1.0000
  H   H38       1.0  0.64523  0.00233  0.76154  1.0000
  H   H39       1.0  0.59370  0.98258  0.55102  1.0000
  H   H40       1.0  0.57916  0.08335  0.65033  1.0000
  H   H41       1.0  0.80093  0.04713  0.66975  1.0000
  H   H42       1.0  0.78621  0.14783  0.76899  1.0000
  O   O28       1.0  0.63504  0.34018  0.56135  1.0000
  C   C51       1.0  0.79698  0.46395  0.69945  1.0000
  C   C52       1.0  0.68451  0.40705  0.69161  1.0000
  H   H43       1.0  0.83702  0.51801  0.80477  1.0000
  H   H44       1.0  0.78564  0.49854  0.59425  1.0000
  H   H45       1.0  0.85159  0.41737  0.70517  1.0000
  H   H46       1.0  0.62984  0.45356  0.68594  1.0000
  H   H47       1.0  0.69593  0.37244  0.79681  1.0000
  H   H48       1.0  0.81211  0.43492  0.53183  1.0000
