data_image0
_chemical_formula_structural       Zn4O13C20HOHOH2
_chemical_formula_sum              "Zn4 O15 C20 H4"
_cell_length_a       11.1694
_cell_length_b       18.2154
_cell_length_c       11.1694
_cell_angle_alpha    90.0368
_cell_angle_beta     90.0198
_cell_angle_gamma    90.0236

_space_group_name_H-M_alt    "P 1"
_space_group_IT_number       1

loop_
  _space_group_symop_operation_xyz
  'x, y, z'

loop_
  _atom_site_type_symbol
  _atom_site_label
  _atom_site_symmetry_multiplicity
  _atom_site_fract_x
  _atom_site_fract_y
  _atom_site_fract_z
  _atom_site_occupancy
  Zn  Zn1       1.0  0.83486  0.70709  0.67851  1.0000
  Zn  Zn2       1.0  0.83470  0.58400  0.47781  1.0000
  Zn  Zn3       1.0  0.63414  0.70705  0.47784  1.0000
  Zn  Zn4       1.0  0.63411  0.58406  0.67845  1.0000
  O   O1        1.0  0.73445  0.64555  0.57815  1.0000
  O   O2        1.0  0.00279  0.69076  0.65189  1.0000
  O   O3        1.0  0.80805  0.60028  0.30986  1.0000
  O   O4        1.0  0.66085  0.81004  0.50450  1.0000
  O   O5        1.0  0.00267  0.60032  0.50444  1.0000
  O   O6        1.0  0.80831  0.81007  0.65192  1.0000
  O   O7        1.0  0.66070  0.69068  0.30989  1.0000
  O   O8        1.0  0.46619  0.69074  0.50444  1.0000
  O   O9        1.0  0.66079  0.60043  0.84641  1.0000
  O   O10       1.0  0.46616  0.60038  0.65183  1.0000
  O   O11       1.0  0.80828  0.69082  0.84645  1.0000
  O   O12       1.0  0.80802  0.48103  0.50439  1.0000
  O   O13       1.0  0.66064  0.48107  0.65180  1.0000
  C   C1        1.0  0.42263  0.64556  0.57814  1.0000
  C   C2        1.0  0.28923  0.64555  0.57816  1.0000
  C   C3        1.0  0.73434  0.45434  0.57811  1.0000
  C   C4        1.0  0.73440  0.37255  0.57813  1.0000
  C   C5        1.0  0.81122  0.18443  0.65500  1.0000
  C   C6        1.0  0.81126  0.10757  0.65502  1.0000
  C   C7        1.0  0.65784  0.10742  0.50138  1.0000
  C   C8        1.0  0.65779  0.18428  0.50136  1.0000
  C   C9        1.0  0.73449  0.22278  0.57817  1.0000
  C   C10       1.0  0.73458  0.06907  0.57821  1.0000
  C   C11       1.0  0.73463  0.98573  0.57823  1.0000
  C   C12       1.0  0.73444  0.30612  0.57815  1.0000
  C   C13       1.0  0.04750  0.64554  0.57817  1.0000
  C   C14       1.0  0.18090  0.64553  0.57817  1.0000
  C   C15       1.0  0.73455  0.64563  0.89119  1.0000
  C   C16       1.0  0.73459  0.64567  0.02459  1.0000
  C   C17       1.0  0.73460  0.83750  0.57822  1.0000
  C   C18       1.0  0.73467  0.91930  0.57825  1.0000
  C   C19       1.0  0.73443  0.64552  0.26633  1.0000
  C   C20       1.0  0.73462  0.64570  0.13293  1.0000
  H   H1        1.0  0.87367  0.21578  0.71755  1.0000
  O   O14       1.0  0.89403  0.06620  0.73789  1.0000
  H   H2        1.0  0.94736  0.10589  0.79129  1.0000
  O   O15       1.0  0.57514  0.06590  0.41850  1.0000
  H   H3        1.0  0.58808  0.00601  0.43141  1.0000
  H   H4        1.0  0.59530  0.21551  0.43879  1.0000
