data_image0
_chemical_formula_structural       Zn8O26C48H2N2H8N2H8N2H6N2H4
_chemical_formula_sum              "Zn8 O26 C48 H28 N8"
_cell_length_a       12.7594
_cell_length_b       16.1205
_cell_length_c       12.7594
_cell_angle_alpha    87.136
_cell_angle_beta     90.0209
_cell_angle_gamma    92.927

_space_group_name_H-M_alt    "P 1"
_space_group_IT_number       1

loop_
  _space_group_symop_operation_xyz
  'x, y, z'

loop_
  _atom_site_type_symbol
  _atom_site_label
  _atom_site_symmetry_multiplicity
  _atom_site_fract_x
  _atom_site_fract_y
  _atom_site_fract_z
  _atom_site_occupancy
  Zn  Zn1       1.0  0.58499  0.66817  0.61518  1.0000
  Zn  Zn2       1.0  0.08499  0.16817  0.11518  1.0000
  Zn  Zn3       1.0  0.57593  0.52873  0.44839  1.0000
  Zn  Zn4       1.0  0.07593  0.02873  0.94839  1.0000
  Zn  Zn5       1.0  0.40928  0.66812  0.43952  1.0000
  Zn  Zn6       1.0  0.90928  0.16812  0.93952  1.0000
  Zn  Zn7       1.0  0.40034  0.52879  0.62403  1.0000
  Zn  Zn8       1.0  0.90034  0.02879  0.12403  1.0000
  O   O1        1.0  0.49263  0.59845  0.53178  1.0000
  O   O2        1.0  0.99263  0.09845  0.03178  1.0000
  O   O3        1.0  0.73080  0.64967  0.59307  1.0000
  O   O4        1.0  0.23080  0.14967  0.09307  1.0000
  O   O5        1.0  0.55378  0.54718  0.30020  1.0000
  O   O6        1.0  0.05378  0.04718  0.80020  1.0000
  O   O7        1.0  0.44012  0.78480  0.45541  1.0000
  O   O8        1.0  0.94012  0.28480  0.95541  1.0000
  O   O9        1.0  0.72415  0.54722  0.47053  1.0000
  O   O10       1.0  0.22415  0.04722  0.97053  1.0000
  O   O11       1.0  0.56921  0.78483  0.58447  1.0000
  O   O12       1.0  0.06921  0.28483  0.08446  1.0000
  O   O13       1.0  0.43134  0.64959  0.29368  1.0000
  O   O14       1.0  0.93134  0.14959  0.79368  1.0000
  O   O15       1.0  0.26107  0.64965  0.46398  1.0000
  O   O16       1.0  0.76107  0.14965  0.96398  1.0000
  O   O17       1.0  0.42487  0.54732  0.76987  1.0000
  O   O18       1.0  0.92488  0.04732  0.26987  1.0000
  O   O19       1.0  0.25450  0.54728  0.59954  1.0000
  O   O20       1.0  0.75450  0.04728  0.09954  1.0000
  O   O21       1.0  0.56054  0.64972  0.76338  1.0000
  O   O22       1.0  0.06053  0.14972  0.26337  1.0000
  O   O23       1.0  0.54511  0.41207  0.47911  1.0000
  O   O24       1.0  0.04511  0.91207  0.97911  1.0000
  O   O25       1.0  0.41610  0.41212  0.60815  1.0000
  O   O26       1.0  0.91610  0.91212  0.10815  1.0000
  C   C1        1.0  0.21967  0.59846  0.53176  1.0000
  C   C2        1.0  0.71967  0.09846  0.03176  1.0000
  C   C3        1.0  0.10289  0.59845  0.53178  1.0000
  C   C4        1.0  0.60289  0.09845  0.03178  1.0000
  C   C5        1.0  0.47868  0.38185  0.54557  1.0000
  C   C6        1.0  0.97868  0.88185  0.04557  1.0000
  C   C7        1.0  0.47281  0.28918  0.55151  1.0000
  C   C8        1.0  0.97280  0.78918  0.05151  1.0000
  C   C9        1.0  0.04463  0.54506  0.60226  1.0000
  C   C10       1.0  0.54463  0.04506  0.10226  1.0000
  C   C11       1.0  0.93490  0.54506  0.60228  1.0000
  C   C12       1.0  0.43490  0.04506  0.10228  1.0000
  C   C13       1.0  0.94171  0.65183  0.46133  1.0000
  C   C14       1.0  0.44171  0.15183  0.96133  1.0000
  C   C15       1.0  0.05143  0.65183  0.46131  1.0000
  C   C16       1.0  0.55143  0.15183  0.96131  1.0000
  C   C17       1.0  0.46209  0.11952  0.56237  1.0000
  C   C18       1.0  0.96209  0.61952  0.06237  1.0000
  C   C19       1.0  0.52337  0.07823  0.50121  1.0000
  C   C20       1.0  0.02337  0.57823  0.00121  1.0000
  C   C21       1.0  0.51740  0.98382  0.50726  1.0000
  C   C22       1.0  0.01740  0.48382  0.00726  1.0000
  C   C23       1.0  0.46805  0.21393  0.55633  1.0000
  C   C24       1.0  0.96805  0.71393  0.05633  1.0000
  C   C25       1.0  0.76667  0.59844  0.53180  1.0000
  C   C26       1.0  0.26667  0.09844  0.03180  1.0000
  C   C27       1.0  0.88344  0.59844  0.53181  1.0000
  C   C28       1.0  0.38344  0.09844  0.03181  1.0000
  C   C29       1.0  0.49272  0.59853  0.80581  1.0000
  C   C30       1.0  0.99272  0.09853  0.30581  1.0000
  C   C31       1.0  0.49275  0.59857  0.92258  1.0000
  C   C32       1.0  0.99275  0.09857  0.42258  1.0000
  C   C33       1.0  0.50667  0.81591  0.51796  1.0000
  C   C34       1.0  0.00667  0.31591  0.01796  1.0000
  C   C35       1.0  0.51265  0.90857  0.51207  1.0000
  C   C36       1.0  0.01265  0.40857  0.01207  1.0000
  C   C37       1.0  0.49261  0.59843  0.25882  1.0000
  C   C38       1.0  0.99261  0.09843  0.75882  1.0000
  C   C39       1.0  0.49280  0.59864  0.14203  1.0000
  C   C40       1.0  0.99280  0.09863  0.64203  1.0000
  C   C41       1.0  0.56340  0.65190  0.97406  1.0000
  C   C42       1.0  0.06340  0.15190  0.47406  1.0000
  C   C43       1.0  0.56342  0.65193  0.08379  1.0000
  C   C44       1.0  0.06342  0.15193  0.58379  1.0000
  C   C45       1.0  0.42215  0.54530  0.09054  1.0000
  C   C46       1.0  0.92215  0.04530  0.59054  1.0000
  C   C47       1.0  0.42212  0.54527  0.98082  1.0000
  C   C48       1.0  0.92212  0.04527  0.48082  1.0000
  H   H1        1.0  0.08652  0.50160  0.65964  1.0000
  H   H2        1.0  0.58652  0.00160  0.15964  1.0000
  N   N1        1.0  0.34598  0.48781  0.15336  1.0000
  N   N2        1.0  0.84598  0.98781  0.65336  1.0000
  H   H3        1.0  0.30123  0.45403  0.10409  1.0000
  H   H4        1.0  0.80123  0.95403  0.60409  1.0000
  H   H5        1.0  0.29957  0.52176  0.19672  1.0000
  H   H6        1.0  0.79957  0.02176  0.69672  1.0000
  H   H7        1.0  0.40515  0.08397  0.61926  1.0000
  H   H8        1.0  0.90515  0.58397  0.11926  1.0000
  H   H9        1.0  0.62091  0.69529  0.92665  1.0000
  H   H10       1.0  0.12091  0.19529  0.42665  1.0000
  N   N3        1.0  0.87206  0.48748  0.67830  1.0000
  N   N4        1.0  0.37206  0.98748  0.17830  1.0000
  H   H11       1.0  0.92131  0.45366  0.72293  1.0000
  H   H12       1.0  0.42131  0.95366  0.22293  1.0000
  H   H13       1.0  0.82404  0.44894  0.63791  1.0000
  H   H14       1.0  0.32404  0.94894  0.13791  1.0000
  H   H15       1.0  0.89980  0.69529  0.40395  1.0000
  H   H16       1.0  0.39980  0.19529  0.90395  1.0000
  H   H17       1.0  0.36459  0.50185  0.93890  1.0000
  H   H18       1.0  0.86459  0.00185  0.43891  1.0000
  N   N5        1.0  0.59879  0.12531  0.42585  1.0000
  N   N6        1.0  0.09879  0.62531  0.92585  1.0000
  H   H19       1.0  0.58157  0.11015  0.35172  1.0000
  H   H20       1.0  0.08157  0.61015  0.85172  1.0000
  H   H21       1.0  0.67289  0.11026  0.44326  1.0000
  H   H22       1.0  0.17289  0.61026  0.94326  1.0000
  H   H23       1.0  0.09887  0.69531  0.40391  1.0000
  H   H24       1.0  0.59887  0.19531  0.90391  1.0000
  N   N7        1.0  0.63960  0.70946  0.13931  1.0000
  N   N8        1.0  0.13960  0.20946  0.63931  1.0000
  H   H25       1.0  0.68433  0.74322  0.08577  1.0000
  H   H26       1.0  0.18433  0.24322  0.58577  1.0000
  H   H27       1.0  0.68604  0.67554  0.18701  1.0000
  H   H28       1.0  0.18604  0.17554  0.68701  1.0000
