data_image0
_chemical_formula_structural       Zn4O13C48HCNH3CNH2CNCNHCNH5CNH2CNHCNH2CN
_chemical_formula_sum              "Zn4 O13 C57 H17 N9"
_cell_length_a       19.1209
_cell_length_b       15.2975
_cell_length_c       15.2973
_cell_angle_alpha    88.3745
_cell_angle_beta     101.624
_cell_angle_gamma    96.8548

_space_group_name_H-M_alt    "P 1"
_space_group_IT_number       1

loop_
  _space_group_symop_operation_xyz
  'x, y, z'

loop_
  _atom_site_type_symbol
  _atom_site_label
  _atom_site_symmetry_multiplicity
  _atom_site_fract_x
  _atom_site_fract_y
  _atom_site_fract_z
  _atom_site_occupancy
  Zn  Zn1       1.0  0.35430  0.76167  0.39078  1.0000
  Zn  Zn2       1.0  0.45520  0.78083  0.24877  1.0000
  Zn  Zn3       1.0  0.49451  0.89939  0.42231  1.0000
  Zn  Zn4       1.0  0.36114  0.93310  0.27005  1.0000
  O   O1        1.0  0.41629  0.84374  0.33298  1.0000
  O   O2        1.0  0.34838  0.64285  0.34984  1.0000
  O   O3        1.0  0.55846  0.79046  0.27607  1.0000
  O   O4        1.0  0.48949  0.85899  0.54129  1.0000
  O   O5        1.0  0.42251  0.65692  0.24550  1.0000
  O   O6        1.0  0.38649  0.75781  0.51813  1.0000
  O   O7        1.0  0.58733  0.87757  0.40358  1.0000
  O   O8        1.0  0.49612  0.02522  0.42422  1.0000
  O   O9        1.0  0.26219  0.91645  0.28178  1.0000
  O   O10       1.0  0.39814  0.04999  0.31236  1.0000
  O   O11       1.0  0.25717  0.79050  0.37048  1.0000
  O   O12       1.0  0.42914  0.82315  0.12843  1.0000
  O   O13       1.0  0.36003  0.93502  0.14407  1.0000
  C   C1        1.0  0.45214  0.06907  0.37402  1.0000
  C   C2        1.0  0.46746  0.16547  0.39155  1.0000
  C   C3        1.0  0.39104  0.88480  0.10431  1.0000
  C   C4        1.0  0.38021  0.90229  0.00648  1.0000
  C   C5        1.0  0.23355  0.85510  0.32499  1.0000
  C   C6        1.0  0.15568  0.85993  0.32159  1.0000
  C   C7        1.0  0.11648  0.79664  0.36617  1.0000
  C   C8        1.0  0.04331  0.80119  0.36297  1.0000
  C   C9        1.0  0.00935  0.86904  0.31519  1.0000
  C   C10       1.0  0.04855  0.93235  0.27061  1.0000
  C   C11       1.0  0.12172  0.92780  0.27381  1.0000
  C   C12       1.0  0.78856  0.88607  0.30323  1.0000
  C   C13       1.0  0.71539  0.89062  0.30003  1.0000
  C   C14       1.0  0.71015  0.75947  0.39239  1.0000
  C   C15       1.0  0.78332  0.75492  0.39559  1.0000
  C   C16       1.0  0.82252  0.81822  0.35101  1.0000
  C   C17       1.0  0.93456  0.87370  0.31193  1.0000
  C   C18       1.0  0.89731  0.81357  0.35428  1.0000
  C   C19       1.0  0.59831  0.83237  0.34099  1.0000
  C   C20       1.0  0.67619  0.82732  0.34461  1.0000
  C   C21       1.0  0.38030  0.61754  0.29178  1.0000
  C   C22       1.0  0.36496  0.52114  0.27422  1.0000
  C   C23       1.0  0.30681  0.48874  0.20765  1.0000
  C   C24       1.0  0.29242  0.39817  0.19117  1.0000
  C   C25       1.0  0.33618  0.33999  0.24126  1.0000
  C   C26       1.0  0.39433  0.37239  0.30784  1.0000
  C   C27       1.0  0.40872  0.46297  0.32432  1.0000
  C   C28       1.0  0.43809  0.31422  0.35793  1.0000
  C   C29       1.0  0.49624  0.34662  0.42451  1.0000
  C   C30       1.0  0.51064  0.43720  0.44099  1.0000
  C   C31       1.0  0.46688  0.49538  0.39089  1.0000
  C   C32       1.0  0.42370  0.22364  0.34145  1.0000
  C   C33       1.0  0.52561  0.19787  0.45812  1.0000
  C   C34       1.0  0.54000  0.28844  0.47460  1.0000
  C   C35       1.0  0.49344  0.71842  0.69819  1.0000
  C   C36       1.0  0.50362  0.70199  0.79012  1.0000
  C   C37       1.0  0.47277  0.75206  0.84421  1.0000
  C   C38       1.0  0.43173  0.81857  0.80637  1.0000
  C   C39       1.0  0.42155  0.83500  0.71444  1.0000
  C   C40       1.0  0.40088  0.86865  0.86046  1.0000
  C   C41       1.0  0.35984  0.93516  0.82262  1.0000
  C   C42       1.0  0.34967  0.95159  0.73069  1.0000
  C   C43       1.0  0.38052  0.90152  0.67660  1.0000
  C   C44       1.0  0.41106  0.85221  0.95239  1.0000
  C   C45       1.0  0.33918  0.96880  0.96863  1.0000
  C   C46       1.0  0.32899  0.98523  0.87671  1.0000
  C   C47       1.0  0.44161  0.80250  0.56253  1.0000
  C   C48       1.0  0.45240  0.78493  0.66036  1.0000
  H   H1        1.0  0.14413  0.74138  0.40507  1.0000
  C   C49       1.0  0.48270  0.59501  0.40903  1.0000
  N   N1        1.0  0.49460  0.67006  0.42269  1.0000
  H   H2        1.0  0.37223  0.91489  0.60174  1.0000
  H   H3        1.0  0.51856  0.67766  0.65415  1.0000
  H   H4        1.0  0.67823  0.70792  0.42869  1.0000
  C   C50       1.0  0.83167  0.95572  0.25420  1.0000
  N   N2        1.0  0.86415  0.00818  0.21726  1.0000
  H   H5        1.0  0.90689  0.92894  0.27302  1.0000
  H   H6        1.0  0.31626  0.00576  0.69989  1.0000
  C   C51       1.0  0.30524  0.02389  0.02813  1.0000
  N   N3        1.0  0.27967  0.06537  0.07295  1.0000
  C   C52       1.0  0.28386  0.05840  0.83507  1.0000
  N   N4        1.0  0.24987  0.11351  0.80371  1.0000
  H   H7        1.0  0.48106  0.73868  0.91906  1.0000
  C   C53       1.0  0.54878  0.62884  0.83174  1.0000
  N   N5        1.0  0.58279  0.57375  0.86309  1.0000
  H   H8        1.0  0.37635  0.19727  0.28725  1.0000
  H   H9        1.0  0.55799  0.46358  0.49519  1.0000
  H   H10       1.0  0.01140  0.74965  0.39927  1.0000
  H   H11       1.0  0.58735  0.31484  0.52881  1.0000
  H   H12       1.0  0.15364  0.97935  0.23752  1.0000
  C   C54       1.0  0.01119  0.00699  0.21806  1.0000
  N   N6        1.0  0.98305  0.06322  0.17848  1.0000
  H   H13       1.0  0.81097  0.69966  0.43449  1.0000
  H   H14       1.0  0.68774  0.94588  0.26112  1.0000
  C   C55       1.0  0.57375  0.13388  0.51323  1.0000
  N   N7        1.0  0.61000  0.08567  0.55474  1.0000
  H   H15       1.0  0.92497  0.75833  0.39319  1.0000
  C   C56       1.0  0.32035  0.24036  0.22312  1.0000
  N   N8        1.0  0.30844  0.16532  0.20944  1.0000
  H   H16       1.0  0.44448  0.79806  0.98319  1.0000
  H   H17       1.0  0.24507  0.37179  0.13696  1.0000
  C   C57       1.0  0.25868  0.55274  0.15255  1.0000
  N   N9        1.0  0.22243  0.60095  0.11105  1.0000
