data_image0
_chemical_formula_structural       Zn4O13C32H4NH4NH6NH3
_chemical_formula_sum              "Zn4 O13 C32 H17 N3"
_cell_length_a       16.1205
_cell_length_b       14.9085
_cell_length_c       14.9083
_cell_angle_alpha    83.6392
_cell_angle_beta     90.5484
_cell_angle_gamma    89.4168

_space_group_name_H-M_alt    "P 1"
_space_group_IT_number       1

loop_
  _space_group_symop_operation_xyz
  'x, y, z'

loop_
  _atom_site_type_symbol
  _atom_site_label
  _atom_site_symmetry_multiplicity
  _atom_site_fract_x
  _atom_site_fract_y
  _atom_site_fract_z
  _atom_site_occupancy
  Zn  Zn1       1.0  0.21778  0.46087  0.39659  1.0000
  Zn  Zn2       1.0  0.21769  0.60351  0.53923  1.0000
  Zn  Zn3       1.0  0.08771  0.44459  0.55550  1.0000
  Zn  Zn4       1.0  0.07071  0.60362  0.39647  1.0000
  O   O1        1.0  0.14847  0.52815  0.47195  1.0000
  O   O2        1.0  0.33371  0.48656  0.40876  1.0000
  O   O3        1.0  0.20752  0.57557  0.66764  1.0000
  O   O4        1.0  0.11212  0.32050  0.54129  1.0000
  O   O5        1.0  0.33364  0.59136  0.51355  1.0000
  O   O6        1.0  0.20768  0.33246  0.42454  1.0000
  O   O7        1.0  0.11203  0.45881  0.67959  1.0000
  O   O8        1.0  0.96951  0.45892  0.54117  1.0000
  O   O9        1.0  0.08315  0.59154  0.27024  1.0000
  O   O10       1.0  0.95702  0.57575  0.42432  1.0000
  O   O11       1.0  0.19120  0.48666  0.27033  1.0000
  O   O12       1.0  0.19104  0.72977  0.51343  1.0000
  O   O13       1.0  0.08306  0.72985  0.40854  1.0000
  C   C1        1.0  0.13521  0.76255  0.45919  1.0000
  C   C2        1.0  0.12962  0.86283  0.45369  1.0000
  C   C3        1.0  0.93320  0.51558  0.48450  1.0000
  C   C4        1.0  0.84111  0.51022  0.48984  1.0000
  C   C5        1.0  0.13529  0.54093  0.23663  1.0000
  C   C6        1.0  0.12967  0.54637  0.13636  1.0000
  C   C7        1.0  0.67249  0.50043  0.49959  1.0000
  C   C8        1.0  0.62529  0.55594  0.44423  1.0000
  C   C9        1.0  0.53146  0.55049  0.44966  1.0000
  C   C10       1.0  0.76632  0.50588  0.49417  1.0000
  C   C11       1.0  0.36458  0.54077  0.45935  1.0000
  C   C12       1.0  0.45667  0.54614  0.45398  1.0000
  C   C13       1.0  0.16181  0.29283  0.48474  1.0000
  C   C14       1.0  0.16749  0.19256  0.49019  1.0000
  C   C15       1.0  0.23164  0.05115  0.55249  1.0000
  C   C16       1.0  0.22638  0.14537  0.54733  1.0000
  C   C17       1.0  0.11385  0.14551  0.43821  1.0000
  C   C18       1.0  0.11910  0.05129  0.44337  1.0000
  C   C19       1.0  0.17800  0.00411  0.50051  1.0000
  C   C20       1.0  0.18325  0.90988  0.50567  1.0000
  C   C21       1.0  0.07072  0.91002  0.39655  1.0000
  C   C22       1.0  0.06547  0.00425  0.39139  1.0000
  C   C23       1.0  0.23162  0.44738  0.94802  1.0000
  C   C24       1.0  0.22634  0.45250  0.85380  1.0000
  C   C25       1.0  0.11383  0.56171  0.85369  1.0000
  C   C26       1.0  0.11911  0.55660  0.94791  1.0000
  C   C27       1.0  0.17801  0.49943  0.99507  1.0000
  C   C28       1.0  0.18329  0.49432  0.08929  1.0000
  C   C29       1.0  0.07077  0.60353  0.08919  1.0000
  C   C30       1.0  0.06550  0.60865  0.99497  1.0000
  C   C31       1.0  0.16166  0.51535  0.70635  1.0000
  C   C32       1.0  0.16745  0.50966  0.80663  1.0000
  H   H1        1.0  0.65534  0.60755  0.39276  1.0000
  H   H2        1.0  0.06590  0.18394  0.39168  1.0000
  H   H3        1.0  0.27958  0.40084  0.98641  1.0000
  H   H4        1.0  0.01752  0.04267  0.34487  1.0000
  N   N1        1.0  0.63268  0.43208  0.56778  1.0000
  H   H5        1.0  0.65053  0.36925  0.55634  1.0000
  H   H6        1.0  0.57034  0.43792  0.56200  1.0000
  H   H7        1.0  0.23121  0.87147  0.55220  1.0000
  H   H8        1.0  0.27959  0.01273  0.59902  1.0000
  N   N2        1.0  0.28424  0.19611  0.60338  1.0000
  H   H9        1.0  0.32234  0.15192  0.64036  1.0000
  H   H10       1.0  0.25070  0.23102  0.64499  1.0000
  H   H11       1.0  0.02712  0.64592  0.12751  1.0000
  H   H12       1.0  0.02705  0.87171  0.35423  1.0000
  H   H13       1.0  0.23124  0.44778  0.12769  1.0000
  H   H14       1.0  0.27000  0.41011  0.81549  1.0000
  N   N3        1.0  0.05028  0.62333  0.80283  1.0000
  H   H15       1.0  0.05507  0.61865  0.73600  1.0000
  H   H16       1.0  0.06042  0.68763  0.81502  1.0000
  H   H17       1.0  0.01754  0.65519  0.95656  1.0000
