data_image0
_chemical_formula_structural       Zn8O26C92H2C4H12C4H16C4H10C4H12C4H14C4H10C4H10C4H16C4H10C4H14C4H10C4H16
_chemical_formula_sum              "Zn8 O26 C140 H152"
_cell_length_a       18.1014
_cell_length_b       19.8054
_cell_length_c       19.8054
_cell_angle_alpha    90.0196
_cell_angle_beta     89.9749
_cell_angle_gamma    89.9689

_space_group_name_H-M_alt    "P 1"
_space_group_IT_number       1

loop_
  _space_group_symop_operation_xyz
  'x, y, z'

loop_
  _atom_site_type_symbol
  _atom_site_label
  _atom_site_symmetry_multiplicity
  _atom_site_fract_x
  _atom_site_fract_y
  _atom_site_fract_z
  _atom_site_occupancy
  Zn  Zn1       1.0  0.70515  0.96529  0.61727  1.0000
  Zn  Zn2       1.0  0.20515  0.46529  0.11727  1.0000
  Zn  Zn3       1.0  0.58131  0.96538  0.73045  1.0000
  Zn  Zn4       1.0  0.08131  0.46538  0.23045  1.0000
  Zn  Zn5       1.0  0.70513  0.07847  0.73044  1.0000
  Zn  Zn6       1.0  0.20513  0.57847  0.23044  1.0000
  Zn  Zn7       1.0  0.58135  0.07852  0.61730  1.0000
  Zn  Zn8       1.0  0.08135  0.57852  0.11731  1.0000
  O   O1        1.0  0.64324  0.02191  0.67387  1.0000
  O   O2        1.0  0.14324  0.52191  0.17387  1.0000
  O   O3        1.0  0.68872  0.87058  0.63227  1.0000
  O   O4        1.0  0.18872  0.37058  0.13227  1.0000
  O   O5        1.0  0.59771  0.98040  0.82517  1.0000
  O   O6        1.0  0.09771  0.48040  0.32517  1.0000
  O   O7        1.0  0.80877  0.06340  0.71541  1.0000
  O   O8        1.0  0.30877  0.56340  0.21541  1.0000
  O   O9        1.0  0.59773  0.87065  0.71543  1.0000
  O   O10       1.0  0.09773  0.37065  0.21543  1.0000
  O   O11       1.0  0.80878  0.98024  0.63226  1.0000
  O   O12       1.0  0.30878  0.48024  0.13226  1.0000
  O   O13       1.0  0.68868  0.06349  0.82516  1.0000
  O   O14       1.0  0.18868  0.56349  0.32516  1.0000
  O   O15       1.0  0.68872  0.17319  0.71545  1.0000
  O   O16       1.0  0.18872  0.67319  0.21545  1.0000
  O   O17       1.0  0.59780  0.06348  0.52258  1.0000
  O   O18       1.0  0.09780  0.56348  0.02258  1.0000
  O   O19       1.0  0.59778  0.17323  0.63233  1.0000
  O   O20       1.0  0.09778  0.67323  0.13233  1.0000
  O   O21       1.0  0.68875  0.98029  0.52256  1.0000
  O   O22       1.0  0.18876  0.48029  0.02256  1.0000
  O   O23       1.0  0.47768  0.98045  0.71546  1.0000
  O   O24       1.0  0.97768  0.48045  0.21546  1.0000
  O   O25       1.0  0.47771  0.06357  0.63233  1.0000
  O   O26       1.0  0.97771  0.56357  0.13233  1.0000
  C   C1        1.0  0.64325  0.19777  0.67389  1.0000
  C   C2        1.0  0.14325  0.69777  0.17389  1.0000
  C   C3        1.0  0.64324  0.27300  0.67388  1.0000
  C   C4        1.0  0.14324  0.77300  0.17388  1.0000
  C   C5        1.0  0.45083  0.02201  0.67389  1.0000
  C   C6        1.0  0.95083  0.52201  0.17389  1.0000
  C   C7        1.0  0.36851  0.02198  0.67387  1.0000
  C   C8        1.0  0.86851  0.52198  0.17387  1.0000
  C   C9        1.0  0.64328  0.02188  0.49732  1.0000
  C   C10       1.0  0.14328  0.52188  0.99733  1.0000
  C   C11       1.0  0.64330  0.02186  0.42209  1.0000
  C   C12       1.0  0.14330  0.52186  0.92209  1.0000
  C   C13       1.0  0.06942  0.02183  0.67384  1.0000
  C   C14       1.0  0.56942  0.52183  0.17384  1.0000
  C   C15       1.0  0.10073  0.07401  0.62140  1.0000
  C   C16       1.0  0.60073  0.57401  0.12141  1.0000
  C   C17       1.0  0.18635  0.07426  0.62157  1.0000
  C   C18       1.0  0.68635  0.57426  0.12157  1.0000
  C   C19       1.0  0.21780  0.02191  0.67385  1.0000
  C   C20       1.0  0.71780  0.52191  0.17385  1.0000
  C   C21       1.0  0.18666  0.04122  0.74519  1.0000
  C   C22       1.0  0.68666  0.54122  0.24519  1.0000
  C   C23       1.0  0.10101  0.04155  0.74487  1.0000
  C   C24       1.0  0.60101  0.54155  0.24488  1.0000
  C   C25       1.0  0.10108  0.95023  0.65556  1.0000
  C   C26       1.0  0.60108  0.45023  0.15556  1.0000
  C   C27       1.0  0.18673  0.95065  0.65400  1.0000
  C   C28       1.0  0.68673  0.45065  0.15400  1.0000
  C   C29       1.0  0.30166  0.02195  0.67387  1.0000
  C   C30       1.0  0.80166  0.52195  0.17387  1.0000
  C   C31       1.0  0.98556  0.02179  0.67383  1.0000
  C   C32       1.0  0.48556  0.52179  0.17383  1.0000
  C   C33       1.0  0.83640  0.02180  0.67383  1.0000
  C   C34       1.0  0.33640  0.52180  0.17383  1.0000
  C   C35       1.0  0.91871  0.02176  0.67382  1.0000
  C   C36       1.0  0.41871  0.52176  0.17382  1.0000
  C   C37       1.0  0.64322  0.84537  0.67385  1.0000
  C   C38       1.0  0.14322  0.34537  0.17384  1.0000
  C   C39       1.0  0.64321  0.77014  0.67384  1.0000
  C   C40       1.0  0.14322  0.27014  0.17384  1.0000
  C   C41       1.0  0.59581  0.30835  0.63067  1.0000
  C   C42       1.0  0.09581  0.80835  0.13067  1.0000
  C   C43       1.0  0.59581  0.37904  0.63066  1.0000
  C   C44       1.0  0.09581  0.87904  0.13066  1.0000
  C   C45       1.0  0.64323  0.41438  0.67387  1.0000
  C   C46       1.0  0.14323  0.91438  0.17387  1.0000
  C   C47       1.0  0.69066  0.37903  0.71708  1.0000
  C   C48       1.0  0.19066  0.87903  0.21708  1.0000
  C   C49       1.0  0.69067  0.30834  0.71709  1.0000
  C   C50       1.0  0.19067  0.80834  0.21709  1.0000
  C   C51       1.0  0.69065  0.66410  0.71706  1.0000
  C   C52       1.0  0.19065  0.16410  0.21706  1.0000
  C   C53       1.0  0.69064  0.73479  0.71705  1.0000
  C   C54       1.0  0.19064  0.23479  0.21705  1.0000
  C   C55       1.0  0.59579  0.73479  0.63063  1.0000
  C   C56       1.0  0.09579  0.23480  0.13063  1.0000
  C   C57       1.0  0.59580  0.66411  0.63064  1.0000
  C   C58       1.0  0.09580  0.16411  0.13064  1.0000
  C   C59       1.0  0.64323  0.62877  0.67385  1.0000
  C   C60       1.0  0.14323  0.12876  0.17385  1.0000
  C   C61       1.0  0.64323  0.55212  0.67386  1.0000
  C   C62       1.0  0.14323  0.05212  0.17386  1.0000
  C   C63       1.0  0.64323  0.49102  0.67386  1.0000
  C   C64       1.0  0.14323  0.99103  0.17386  1.0000
  C   C65       1.0  0.69067  0.97854  0.38673  1.0000
  C   C66       1.0  0.19067  0.47854  0.88673  1.0000
  C   C67       1.0  0.69069  0.97854  0.31605  1.0000
  C   C68       1.0  0.19069  0.47853  0.81605  1.0000
  C   C69       1.0  0.64334  0.02184  0.28072  1.0000
  C   C70       1.0  0.14334  0.52184  0.78072  1.0000
  C   C71       1.0  0.59597  0.06517  0.31608  1.0000
  C   C72       1.0  0.09598  0.56517  0.81608  1.0000
  C   C73       1.0  0.59596  0.06518  0.38677  1.0000
  C   C74       1.0  0.09596  0.56518  0.88677  1.0000
  C   C75       1.0  0.59604  0.06513  0.03101  1.0000
  C   C76       1.0  0.09604  0.56513  0.53101  1.0000
  C   C77       1.0  0.59606  0.06511  0.96032  1.0000
  C   C78       1.0  0.09606  0.56511  0.46032  1.0000
  C   C79       1.0  0.69077  0.97849  0.96028  1.0000
  C   C80       1.0  0.19078  0.47849  0.46028  1.0000
  C   C81       1.0  0.69076  0.97850  0.03097  1.0000
  C   C82       1.0  0.19076  0.47850  0.53097  1.0000
  C   C83       1.0  0.64339  0.02182  0.06633  1.0000
  C   C84       1.0  0.14339  0.52182  0.56633  1.0000
  C   C85       1.0  0.64337  0.02183  0.14298  1.0000
  C   C86       1.0  0.14337  0.52183  0.64298  1.0000
  C   C87       1.0  0.64336  0.02183  0.20407  1.0000
  C   C88       1.0  0.14336  0.52183  0.70407  1.0000
  C   C89       1.0  0.64324  0.02191  0.84972  1.0000
  C   C90       1.0  0.14324  0.52191  0.34972  1.0000
  C   C91       1.0  0.64343  0.02180  0.92496  1.0000
  C   C92       1.0  0.14343  0.52180  0.42496  1.0000
  H   H1        1.0  0.20741  0.06217  0.56868  1.0000
  H   H2        1.0  0.70741  0.56217  0.06867  1.0000
  C   C93       1.0  0.81618  0.94543  0.93850  1.0000
  C   C94       1.0  0.31618  0.44543  0.43850  1.0000
  C   C95       1.0  0.74285  0.93087  0.92142  1.0000
  C   C96       1.0  0.24285  0.43087  0.42142  1.0000
  H   H3        1.0  0.84833  0.91603  0.91451  1.0000
  H   H4        1.0  0.34833  0.41603  0.41451  1.0000
  H   H5        1.0  0.82703  0.99090  0.92692  1.0000
  H   H6        1.0  0.32703  0.49090  0.42692  1.0000
  H   H7        1.0  0.82293  0.93924  0.98566  1.0000
  H   H8        1.0  0.32294  0.43924  0.48566  1.0000
  H   H9        1.0  0.73609  0.93706  0.87426  1.0000
  H   H10       1.0  0.23609  0.43706  0.37426  1.0000
  H   H11       1.0  0.73200  0.88539  0.93300  1.0000
  H   H12       1.0  0.23200  0.38539  0.43300  1.0000
  H   H13       1.0  0.08029  0.00520  0.78527  1.0000
  H   H14       1.0  0.58029  0.50520  0.28527  1.0000
  C   C97       1.0  0.25956  0.94282  0.76925  1.0000
  C   C98       1.0  0.75956  0.44282  0.26925  1.0000
  C   C99       1.0  0.21416  0.99154  0.79937  1.0000
  C   C100      1.0  0.71416  0.49154  0.29937  1.0000
  H   H15       1.0  0.27654  0.91215  0.80270  1.0000
  H   H16       1.0  0.77654  0.41215  0.30270  1.0000
  H   H17       1.0  0.23227  0.91892  0.73599  1.0000
  H   H18       1.0  0.73227  0.41892  0.23599  1.0000
  H   H19       1.0  0.30067  0.96435  0.74863  1.0000
  H   H20       1.0  0.80067  0.46435  0.24863  1.0000
  H   H21       1.0  0.17305  0.97001  0.81998  1.0000
  H   H22       1.0  0.67305  0.47001  0.31998  1.0000
  H   H23       1.0  0.24145  0.01543  0.83264  1.0000
  H   H24       1.0  0.74145  0.51543  0.33264  1.0000
  H   H25       1.0  0.55743  0.10043  0.28731  1.0000
  H   H26       1.0  0.05743  0.60043  0.78731  1.0000
  H   H27       1.0  0.55719  0.40781  0.59547  1.0000
  H   H28       1.0  0.05719  0.90781  0.09548  1.0000
  H   H29       1.0  0.07915  0.12676  0.63336  1.0000
  H   H30       1.0  0.57915  0.62676  0.13336  1.0000
  C   C101      1.0  0.55369  0.55575  0.59228  1.0000
  C   C102      1.0  0.05369  0.05575  0.09228  1.0000
  C   C103      1.0  0.54367  0.62526  0.58314  1.0000
  C   C104      1.0  0.04367  0.12526  0.08314  1.0000
  H   H31       1.0  0.52151  0.53177  0.56295  1.0000
  H   H32       1.0  0.02151  0.03177  0.06295  1.0000
  H   H33       1.0  0.60343  0.54415  0.58229  1.0000
  H   H34       1.0  0.10343  0.04415  0.08229  1.0000
  H   H35       1.0  0.54291  0.54420  0.63777  1.0000
  H   H36       1.0  0.04291  0.04420  0.13777  1.0000
  H   H37       1.0  0.55445  0.63681  0.53765  1.0000
  H   H38       1.0  0.05445  0.13681  0.03765  1.0000
  H   H39       1.0  0.49392  0.63687  0.59312  1.0000
  H   H40       1.0  0.99392  0.13687  0.09312  1.0000
  C   C105      1.0  0.13488  0.15384  0.77845  1.0000
  C   C106      1.0  0.63488  0.65384  0.27845  1.0000
  C   C107      1.0  0.07395  0.11221  0.76577  1.0000
  C   C108      1.0  0.57395  0.61221  0.26577  1.0000
  H   H41       1.0  0.11818  0.19747  0.79134  1.0000
  H   H42       1.0  0.61818  0.69747  0.29134  1.0000
  H   H43       1.0  0.16366  0.13500  0.81383  1.0000
  H   H44       1.0  0.66366  0.63500  0.31383  1.0000
  H   H45       1.0  0.16413  0.15730  0.73876  1.0000
  H   H46       1.0  0.66413  0.65730  0.23876  1.0000
  H   H47       1.0  0.04470  0.10875  0.80545  1.0000
  H   H48       1.0  0.54470  0.60875  0.30545  1.0000
  H   H49       1.0  0.04515  0.13106  0.73038  1.0000
  H   H50       1.0  0.54515  0.63106  0.23038  1.0000
  H   H51       1.0  0.72927  0.63533  0.75225  1.0000
  H   H52       1.0  0.22926  0.13534  0.25225  1.0000
  C   C109      1.0  0.55370  0.19999  0.59231  1.0000
  C   C110      1.0  0.05370  0.69999  0.09231  1.0000
  C   C111      1.0  0.54368  0.26950  0.58318  1.0000
  C   C112      1.0  0.04369  0.76950  0.08318  1.0000
  H   H53       1.0  0.52151  0.17601  0.56299  1.0000
  H   H54       1.0  0.02151  0.67601  0.06299  1.0000
  H   H55       1.0  0.60344  0.18838  0.58232  1.0000
  H   H56       1.0  0.10344  0.68838  0.08232  1.0000
  H   H57       1.0  0.54292  0.18844  0.63780  1.0000
  H   H58       1.0  0.04292  0.68844  0.13781  1.0000
  H   H59       1.0  0.55446  0.28105  0.53768  1.0000
  H   H60       1.0  0.05446  0.78105  0.03768  1.0000
  H   H61       1.0  0.49393  0.28111  0.59316  1.0000
  H   H62       1.0  0.99393  0.78111  0.09316  1.0000
  H   H63       1.0  0.72926  0.76357  0.75223  1.0000
  H   H64       1.0  0.22926  0.26357  0.25224  1.0000
  H   H65       1.0  0.55751  0.10038  0.93155  1.0000
  H   H66       1.0  0.05751  0.60038  0.43155  1.0000
  C   C113      1.0  0.50244  0.15077  0.02393  1.0000
  C   C114      1.0  0.00244  0.65077  0.52393  1.0000
  C   C115      1.0  0.54399  0.11276  0.06987  1.0000
  C   C116      1.0  0.04399  0.61276  0.56987  1.0000
  H   H67       1.0  0.47031  0.18018  0.04792  1.0000
  H   H68       1.0  0.97031  0.68018  0.54792  1.0000
  H   H69       1.0  0.53472  0.17662  0.99635  1.0000
  H   H70       1.0  0.03472  0.67662  0.49635  1.0000
  H   H71       1.0  0.47411  0.12129  0.99637  1.0000
  H   H72       1.0  0.97411  0.62129  0.49637  1.0000
  H   H73       1.0  0.57233  0.14224  0.09743  1.0000
  H   H74       1.0  0.07233  0.64224  0.59743  1.0000
  H   H75       1.0  0.51171  0.08690  0.09746  1.0000
  H   H76       1.0  0.01171  0.58690  0.59746  1.0000
  C   C117      1.0  0.02522  0.97587  0.55951  1.0000
  C   C118      1.0  0.52522  0.47587  0.05951  1.0000
  C   C119      1.0  0.07199  0.92646  0.58654  1.0000
  C   C120      1.0  0.57199  0.42646  0.08654  1.0000
  H   H77       1.0  0.00727  0.96120  0.51689  1.0000
  H   H78       1.0  0.50727  0.46120  0.01689  1.0000
  H   H79       1.0  0.98481  0.98310  0.58926  1.0000
  H   H80       1.0  0.48481  0.48310  0.08926  1.0000
  H   H81       1.0  0.05186  0.01681  0.55403  1.0000
  H   H82       1.0  0.55186  0.51681  0.05403  1.0000
  H   H83       1.0  0.04535  0.88552  0.59201  1.0000
  H   H84       1.0  0.54535  0.38552  0.09201  1.0000
  H   H85       1.0  0.11241  0.91923  0.55677  1.0000
  H   H86       1.0  0.61241  0.41923  0.05677  1.0000
  C   C121      1.0  0.50232  0.15079  0.37970  1.0000
  C   C122      1.0  0.00232  0.65079  0.87970  1.0000
  C   C123      1.0  0.54388  0.11278  0.42564  1.0000
  C   C124      1.0  0.04388  0.61278  0.92564  1.0000
  H   H87       1.0  0.47016  0.18017  0.40370  1.0000
  H   H88       1.0  0.97016  0.68017  0.90370  1.0000
  H   H89       1.0  0.53459  0.17666  0.35214  1.0000
  H   H90       1.0  0.03459  0.67666  0.85214  1.0000
  H   H91       1.0  0.47401  0.12130  0.35213  1.0000
  H   H92       1.0  0.97400  0.62130  0.85213  1.0000
  H   H93       1.0  0.57220  0.14227  0.45321  1.0000
  H   H94       1.0  0.07220  0.64227  0.95321  1.0000
  H   H95       1.0  0.51160  0.08690  0.45322  1.0000
  H   H96       1.0  0.01161  0.58690  0.95322  1.0000
  H   H97       1.0  0.20804  0.09300  0.76095  1.0000
  H   H98       1.0  0.70804  0.59300  0.26095  1.0000
  H   H99       1.0  0.72928  0.40781  0.75226  1.0000
  H   H100      1.0  0.22928  0.90781  0.25226  1.0000
  H   H101      1.0  0.55717  0.76358  0.59545  1.0000
  H   H102      1.0  0.05717  0.26358  0.09545  1.0000
  C   C125      1.0  0.03320  0.84769  0.67367  1.0000
  C   C126      1.0  0.53320  0.34769  0.17367  1.0000
  C   C127      1.0  0.07374  0.89775  0.70711  1.0000
  C   C128      1.0  0.57374  0.39775  0.20711  1.0000
  H   H103      1.0  0.01633  0.81530  0.70549  1.0000
  H   H104      1.0  0.51632  0.31529  0.20549  1.0000
  H   H105      1.0  0.99201  0.86770  0.65170  1.0000
  H   H106      1.0  0.49201  0.36770  0.15170  1.0000
  H   H107      1.0  0.06376  0.82614  0.64115  1.0000
  H   H108      1.0  0.56376  0.32614  0.14115  1.0000
  H   H109      1.0  0.04317  0.91930  0.73962  1.0000
  H   H110      1.0  0.54318  0.41930  0.23962  1.0000
  H   H111      1.0  0.11493  0.87774  0.72909  1.0000
  H   H112      1.0  0.61493  0.37774  0.22909  1.0000
  C   C129      1.0  0.78441  0.31544  0.80252  1.0000
  C   C130      1.0  0.28441  0.81544  0.30252  1.0000
  C   C131      1.0  0.74279  0.26949  0.76459  1.0000
  C   C132      1.0  0.24279  0.76949  0.26459  1.0000
  H   H113      1.0  0.81659  0.29145  0.83185  1.0000
  H   H114      1.0  0.31659  0.79145  0.33185  1.0000
  H   H115      1.0  0.81270  0.34298  0.77298  1.0000
  H   H116      1.0  0.31270  0.84298  0.27298  1.0000
  H   H117      1.0  0.75217  0.34303  0.82846  1.0000
  H   H118      1.0  0.25217  0.84303  0.32846  1.0000
  H   H119      1.0  0.77503  0.24189  0.73865  1.0000
  H   H120      1.0  0.27503  0.74189  0.23865  1.0000
  H   H121      1.0  0.71451  0.24193  0.79413  1.0000
  H   H122      1.0  0.21451  0.74194  0.29413  1.0000
  H   H123      1.0  0.72922  0.94327  0.41549  1.0000
  H   H124      1.0  0.22922  0.44327  0.91549  1.0000
  H   H125      1.0  0.72931  0.94323  0.05973  1.0000
  H   H126      1.0  0.22931  0.44323  0.55973  1.0000
  C   C133      1.0  0.15330  0.18876  0.64761  1.0000
  C   C134      1.0  0.65330  0.68877  0.14761  1.0000
  C   C135      1.0  0.21393  0.14590  0.63792  1.0000
  C   C136      1.0  0.71393  0.64590  0.13792  1.0000
  H   H127      1.0  0.17033  0.23299  0.65771  1.0000
  H   H128      1.0  0.67033  0.73299  0.15771  1.0000
  H   H129      1.0  0.12430  0.18988  0.60767  1.0000
  H   H130      1.0  0.62430  0.68988  0.10767  1.0000
  H   H131      1.0  0.12416  0.17250  0.68403  1.0000
  H   H132      1.0  0.62416  0.67250  0.18403  1.0000
  H   H133      1.0  0.24307  0.16216  0.60150  1.0000
  H   H134      1.0  0.74307  0.66216  0.10150  1.0000
  H   H135      1.0  0.24294  0.14479  0.67787  1.0000
  H   H136      1.0  0.74294  0.64479  0.17787  1.0000
  C   C137      1.0  0.18617  0.86742  0.56583  1.0000
  C   C138      1.0  0.68617  0.36742  0.06583  1.0000
  C   C139      1.0  0.21418  0.93101  0.58311  1.0000
  C   C140      1.0  0.71418  0.43100  0.08311  1.0000
  H   H137      1.0  0.20311  0.85530  0.52206  1.0000
  H   H138      1.0  0.70311  0.35530  0.02206  1.0000
  H   H139      1.0  0.20270  0.83491  0.59768  1.0000
  H   H140      1.0  0.70270  0.33491  0.09768  1.0000
  H   H141      1.0  0.13372  0.86892  0.56602  1.0000
  H   H142      1.0  0.63372  0.36892  0.06602  1.0000
  H   H143      1.0  0.26663  0.92950  0.58293  1.0000
  H   H144      1.0  0.76663  0.42950  0.08293  1.0000
  H   H145      1.0  0.19765  0.96352  0.55125  1.0000
  H   H146      1.0  0.69765  0.46352  0.05125  1.0000
  H   H147      1.0  0.72926  0.94326  0.28726  1.0000
  H   H148      1.0  0.22926  0.44326  0.78726  1.0000
  H   H149      1.0  0.08018  0.06205  0.56834  1.0000
  H   H150      1.0  0.58018  0.56205  0.06834  1.0000
  H   H151      1.0  0.20814  0.90972  0.68940  1.0000
  H   H152      1.0  0.70814  0.40972  0.18940  1.0000
