data_image0
_chemical_formula_structural       Zn8O26C60H2F2H4F4H10F2H2F2H2F2
_chemical_formula_sum              "Zn8 O26 C60 H20 F12"
_cell_length_a       17.0774
_cell_length_b       12.7594
_cell_length_c       12.7594
_cell_angle_alpha    89.9803
_cell_angle_beta     89.9653
_cell_angle_gamma    90.0233

_space_group_name_H-M_alt    "P 1"
_space_group_IT_number       1

loop_
  _space_group_symop_operation_xyz
  'x, y, z'

loop_
  _atom_site_type_symbol
  _atom_site_label
  _atom_site_symmetry_multiplicity
  _atom_site_fract_x
  _atom_site_fract_y
  _atom_site_fract_z
  _atom_site_occupancy
  Zn  Zn1       1.0  0.68754  0.60621  0.40605  1.0000
  Zn  Zn2       1.0  0.18754  0.10621  0.90605  1.0000
  Zn  Zn3       1.0  0.55625  0.60607  0.58174  1.0000
  Zn  Zn4       1.0  0.05625  0.10607  0.08174  1.0000
  Zn  Zn5       1.0  0.68750  0.43051  0.58171  1.0000
  Zn  Zn6       1.0  0.18750  0.93051  0.08171  1.0000
  Zn  Zn7       1.0  0.55631  0.43047  0.40610  1.0000
  Zn  Zn8       1.0  0.05631  0.93047  0.90610  1.0000
  O   O1        1.0  0.62190  0.51831  0.49390  1.0000
  O   O2        1.0  0.12190  0.01831  0.99390  1.0000
  O   O3        1.0  0.67012  0.75321  0.42934  1.0000
  O   O4        1.0  0.17012  0.25321  0.92934  1.0000
  O   O5        1.0  0.57362  0.58274  0.72876  1.0000
  O   O6        1.0  0.07362  0.08274  0.22876  1.0000
  O   O7        1.0  0.79735  0.45388  0.55837  1.0000
  O   O8        1.0  0.29735  0.95388  0.05837  1.0000
  O   O9        1.0  0.57366  0.75311  0.55842  1.0000
  O   O10       1.0  0.07366  0.25311  0.05842  1.0000
  O   O11       1.0  0.79738  0.58297  0.42931  1.0000
  O   O12       1.0  0.29738  0.08297  0.92931  1.0000
  O   O13       1.0  0.67005  0.45375  0.72873  1.0000
  O   O14       1.0  0.17005  0.95375  0.22873  1.0000
  O   O15       1.0  0.67010  0.28348  0.55842  1.0000
  O   O16       1.0  0.17011  0.78348  0.05842  1.0000
  O   O17       1.0  0.57376  0.45383  0.25907  1.0000
  O   O18       1.0  0.07376  0.95383  0.75907  1.0000
  O   O19       1.0  0.57372  0.28346  0.42940  1.0000
  O   O20       1.0  0.07372  0.78346  0.92940  1.0000
  O   O21       1.0  0.67017  0.58294  0.25903  1.0000
  O   O22       1.0  0.17017  0.08294  0.75903  1.0000
  O   O23       1.0  0.44641  0.58271  0.55847  1.0000
  O   O24       1.0  0.94641  0.08271  0.05847  1.0000
  O   O25       1.0  0.44646  0.45370  0.42943  1.0000
  O   O26       1.0  0.94646  0.95370  0.92943  1.0000
  C   C1        1.0  0.62191  0.24535  0.49391  1.0000
  C   C2        1.0  0.12191  0.74535  0.99391  1.0000
  C   C3        1.0  0.62190  0.12857  0.49389  1.0000
  C   C4        1.0  0.12190  0.62857  0.99389  1.0000
  C   C5        1.0  0.67203  0.07376  0.42658  1.0000
  C   C6        1.0  0.17203  0.57376  0.92658  1.0000
  C   C7        1.0  0.67203  0.96404  0.42657  1.0000
  C   C8        1.0  0.17203  0.46404  0.92657  1.0000
  C   C9        1.0  0.57174  0.96394  0.56120  1.0000
  C   C10       1.0  0.07174  0.46394  0.06120  1.0000
  C   C11       1.0  0.57176  0.07366  0.56121  1.0000
  C   C12       1.0  0.07176  0.57366  0.06121  1.0000
  C   C13       1.0  0.41795  0.51821  0.49394  1.0000
  C   C14       1.0  0.91795  0.01821  0.99394  1.0000
  C   C15       1.0  0.33070  0.51826  0.49392  1.0000
  C   C16       1.0  0.83070  0.01826  0.99392  1.0000
  C   C17       1.0  0.28972  0.58551  0.56104  1.0000
  C   C18       1.0  0.78972  0.08551  0.06104  1.0000
  C   C19       1.0  0.20774  0.58556  0.56102  1.0000
  C   C20       1.0  0.70774  0.08556  0.06102  1.0000
  C   C21       1.0  0.16674  0.51836  0.49387  1.0000
  C   C22       1.0  0.66674  0.01836  0.99387  1.0000
  C   C23       1.0  0.20774  0.45111  0.42674  1.0000
  C   C24       1.0  0.70774  0.95111  0.92675  1.0000
  C   C25       1.0  0.28971  0.45107  0.42677  1.0000
  C   C26       1.0  0.78971  0.95107  0.92677  1.0000
  C   C27       1.0  0.03686  0.45121  0.42671  1.0000
  C   C28       1.0  0.53686  0.95121  0.92671  1.0000
  C   C29       1.0  0.95488  0.45125  0.42668  1.0000
  C   C30       1.0  0.45488  0.95126  0.92668  1.0000
  C   C31       1.0  0.95489  0.58571  0.56095  1.0000
  C   C32       1.0  0.45489  0.08570  0.06095  1.0000
  C   C33       1.0  0.03687  0.58566  0.56098  1.0000
  C   C34       1.0  0.53687  0.08566  0.06098  1.0000
  C   C35       1.0  0.07785  0.51841  0.49385  1.0000
  C   C36       1.0  0.57785  0.01841  0.99385  1.0000
  C   C37       1.0  0.82664  0.51845  0.49383  1.0000
  C   C38       1.0  0.32665  0.01844  0.99383  1.0000
  C   C39       1.0  0.91389  0.51850  0.49380  1.0000
  C   C40       1.0  0.41389  0.01850  0.99380  1.0000
  C   C41       1.0  0.62198  0.51839  0.21986  1.0000
  C   C42       1.0  0.12198  0.01839  0.71986  1.0000
  C   C43       1.0  0.62201  0.51843  0.10309  1.0000
  C   C44       1.0  0.12201  0.01843  0.60309  1.0000
  C   C45       1.0  0.62189  0.79235  0.49388  1.0000
  C   C46       1.0  0.12189  0.29235  0.99388  1.0000
  C   C47       1.0  0.62188  0.90912  0.49387  1.0000
  C   C48       1.0  0.12188  0.40912  0.99387  1.0000
  C   C49       1.0  0.67222  0.58566  0.04820  1.0000
  C   C50       1.0  0.17222  0.08566  0.54820  1.0000
  C   C51       1.0  0.67225  0.58568  0.93848  1.0000
  C   C52       1.0  0.17225  0.08568  0.43848  1.0000
  C   C53       1.0  0.57186  0.45123  0.93853  1.0000
  C   C54       1.0  0.07186  0.95123  0.43853  1.0000
  C   C55       1.0  0.57183  0.45120  0.04825  1.0000
  C   C56       1.0  0.07183  0.95120  0.54825  1.0000
  C   C57       1.0  0.62188  0.51830  0.76687  1.0000
  C   C58       1.0  0.12188  0.01830  0.26687  1.0000
  C   C59       1.0  0.62207  0.51847  0.88364  1.0000
  C   C60       1.0  0.12207  0.01847  0.38364  1.0000
  H   H1        1.0  0.53092  0.91922  0.61600  1.0000
  H   H2        1.0  0.03092  0.41922  0.11600  1.0000
  F   F1        1.0  0.16412  0.65714  0.63245  1.0000
  F   F2        1.0  0.66412  0.15714  0.13245  1.0000
  H   H3        1.0  0.07023  0.39645  0.37204  1.0000
  H   H4        1.0  0.57023  0.89645  0.87204  1.0000
  H   H5        1.0  0.71314  0.64042  0.89380  1.0000
  H   H6        1.0  0.21314  0.14042  0.39380  1.0000
  F   F3        1.0  0.16410  0.37960  0.35528  1.0000
  F   F4        1.0  0.66410  0.87960  0.85528  1.0000
  F   F5        1.0  0.51839  0.37964  0.10667  1.0000
  F   F6        1.0  0.01839  0.87964  0.60667  1.0000
  H   H7        1.0  0.92151  0.64047  0.61561  1.0000
  H   H8        1.0  0.42151  0.14047  0.11561  1.0000
  H   H9        1.0  0.32308  0.39631  0.37211  1.0000
  H   H10       1.0  0.82308  0.89631  0.87211  1.0000
  H   H11       1.0  0.53093  0.11829  0.61603  1.0000
  H   H12       1.0  0.03093  0.61829  0.11603  1.0000
  H   H13       1.0  0.32309  0.64023  0.61572  1.0000
  H   H14       1.0  0.82309  0.14023  0.11572  1.0000
  H   H15       1.0  0.71308  0.64039  0.09284  1.0000
  H   H16       1.0  0.21308  0.14039  0.59285  1.0000
  F   F7        1.0  0.08049  0.65718  0.63244  1.0000
  F   F8        1.0  0.58049  0.15718  0.13244  1.0000
  H   H17       1.0  0.71287  0.11846  0.37177  1.0000
  H   H18       1.0  0.21287  0.61846  0.87177  1.0000
  F   F9        1.0  0.72539  0.90571  0.35492  1.0000
  F   F10       1.0  0.22539  0.40571  0.85492  1.0000
  H   H19       1.0  0.92151  0.39655  0.37199  1.0000
  H   H20       1.0  0.42151  0.89655  0.87199  1.0000
  F   F11       1.0  0.51845  0.37969  0.88017  1.0000
  F   F12       1.0  0.01845  0.87969  0.38016  1.0000
