data_image0
_chemical_formula_structural       Zn4O13C54H4N2H2N2H2N2H2N2HN2HN2H3N2HN2H2N2H3N2H2N2HN2HN2H
_chemical_formula_sum              "Zn4 O13 C54 H26 N26"
_cell_length_a       17.6401
_cell_length_b       18.0506
_cell_length_c       17.6395
_cell_angle_alpha    78.7942
_cell_angle_beta     92.1871
_cell_angle_gamma    101.252

_space_group_name_H-M_alt    "P 1"
_space_group_IT_number       1

loop_
  _space_group_symop_operation_xyz
  'x, y, z'

loop_
  _atom_site_type_symbol
  _atom_site_label
  _atom_site_symmetry_multiplicity
  _atom_site_fract_x
  _atom_site_fract_y
  _atom_site_fract_z
  _atom_site_occupancy
  Zn  Zn1       1.0  0.24769  0.90448  0.19508  1.0000
  Zn  Zn2       1.0  0.22196  0.79954  0.06811  1.0000
  Zn  Zn3       1.0  0.09506  0.89471  0.09373  1.0000
  Zn  Zn4       1.0  0.12064  0.75130  0.22070  1.0000
  O   O1        1.0  0.17134  0.83751  0.14441  1.0000
  O   O2        1.0  0.35056  0.91484  0.15680  1.0000
  O   O3        1.0  0.18366  0.82827  0.96524  1.0000
  O   O4        1.0  0.11537  0.99994  0.10718  1.0000
  O   O5        1.0  0.33166  0.83774  0.06352  1.0000
  O   O6        1.0  0.22751  0.00712  0.18164  1.0000
  O   O7        1.0  0.09043  0.89819  0.98406  1.0000
  O   O8        1.0  0.99218  0.85141  0.13201  1.0000
  O   O9        1.0  0.15896  0.75551  0.32357  1.0000
  O   O10       1.0  0.01097  0.74604  0.22529  1.0000
  O   O11       1.0  0.25231  0.86805  0.30475  1.0000
  O   O12       1.0  0.20846  0.68921  0.08835  1.0000
  O   O13       1.0  0.13402  0.65376  0.20045  1.0000
  C   C1        1.0  0.97401  0.79243  0.18421  1.0000
  C   C2        1.0  0.88960  0.77312  0.20126  1.0000
  C   C3        1.0  0.56303  0.98418  0.01490  1.0000
  C   C4        1.0  0.48372  0.96602  0.03093  1.0000
  C   C5        1.0  0.50330  0.85620  0.12789  1.0000
  C   C6        1.0  0.58262  0.87435  0.11187  1.0000
  C   C7        1.0  0.61248  0.93834  0.05538  1.0000
  C   C8        1.0  0.63207  0.82851  0.15235  1.0000
  C   C9        1.0  0.71138  0.84666  0.13633  1.0000
  C   C10       1.0  0.74125  0.91064  0.07983  1.0000
  C   C11       1.0  0.69179  0.95649  0.03936  1.0000
  C   C12       1.0  0.60221  0.76452  0.20884  1.0000
  C   C13       1.0  0.65166  0.71868  0.24932  1.0000
  C   C14       1.0  0.73097  0.73683  0.23330  1.0000
  C   C15       1.0  0.76084  0.80081  0.17681  1.0000
  C   C16       1.0  0.78043  0.69098  0.27378  1.0000
  C   C17       1.0  0.85974  0.70913  0.25776  1.0000
  C   C18       1.0  0.84015  0.81896  0.16079  1.0000
  C   C19       1.0  0.17125  0.64454  0.14441  1.0000
  C   C20       1.0  0.17128  0.56199  0.14443  1.0000
  C   C21       1.0  0.13084  0.34325  0.20536  1.0000
  C   C22       1.0  0.09834  0.30010  0.13980  1.0000
  C   C23       1.0  0.17136  0.41088  0.14442  1.0000
  C   C24       1.0  0.20389  0.30695  0.20999  1.0000
  C   C25       1.0  0.17143  0.26491  0.14442  1.0000
  C   C26       1.0  0.13881  0.36881  0.07883  1.0000
  C   C27       1.0  0.24440  0.37567  0.14906  1.0000
  C   C28       1.0  0.21192  0.33255  0.08344  1.0000
  C   C29       1.0  0.17131  0.49497  0.14442  1.0000
  C   C30       1.0  0.17147  0.18082  0.14441  1.0000
  C   C31       1.0  0.36944  0.88276  0.10444  1.0000
  C   C32       1.0  0.45385  0.90204  0.08741  1.0000
  C   C33       1.0  0.21136  0.80749  0.34249  1.0000
  C   C34       1.0  0.22841  0.79470  0.42690  1.0000
  C   C35       1.0  0.17146  0.03123  0.14441  1.0000
  C   C36       1.0  0.17151  0.11379  0.14441  1.0000
  C   C37       1.0  0.04181  0.93463  0.75353  1.0000
  C   C38       1.0  0.05786  0.92259  0.83284  1.0000
  C   C39       1.0  0.15493  0.84980  0.81323  1.0000
  C   C40       1.0  0.13890  0.86182  0.73391  1.0000
  C   C41       1.0  0.08234  0.90424  0.70407  1.0000
  C   C42       1.0  0.17942  0.83143  0.68445  1.0000
  C   C43       1.0  0.16339  0.84346  0.60514  1.0000
  C   C44       1.0  0.10683  0.88587  0.57529  1.0000
  C   C45       1.0  0.06631  0.91626  0.62476  1.0000
  C   C46       1.0  0.23598  0.78902  0.71429  1.0000
  C   C47       1.0  0.27650  0.75863  0.66483  1.0000
  C   C48       1.0  0.26048  0.77065  0.58552  1.0000
  C   C49       1.0  0.20392  0.81307  0.55567  1.0000
  C   C50       1.0  0.30100  0.74026  0.53605  1.0000
  C   C51       1.0  0.28497  0.75229  0.45674  1.0000
  C   C52       1.0  0.18789  0.82509  0.47636  1.0000
  C   C53       1.0  0.13147  0.86739  0.94710  1.0000
  C   C54       1.0  0.11440  0.88019  0.86269  1.0000
  H   H1        1.0  0.75610  0.63888  0.31978  1.0000
  H   H2        1.0  0.90001  0.67180  0.29072  1.0000
  H   H3        1.0  0.32255  0.72409  0.68914  1.0000
  H   H4        1.0  0.30613  0.40843  0.15301  1.0000
  N   N1        1.0  0.82226  0.92919  0.06345  1.0000
  N   N2        1.0  0.84567  0.93083  0.99703  1.0000
  H   H5        1.0  0.90288  0.94393  0.98546  1.0000
  H   H6        1.0  0.11126  0.39568  0.02338  1.0000
  N   N3        1.0  0.25492  0.32605  0.01873  1.0000
  N   N4        1.0  0.23417  0.35082  0.95157  1.0000
  H   H7        1.0  0.26454  0.34623  0.90586  1.0000
  H   H8        1.0  0.23138  0.27998  0.26543  1.0000
  N   N5        1.0  0.72229  0.02187  0.98166  1.0000
  N   N6        1.0  0.67814  0.06280  0.94553  1.0000
  H   H9        1.0  0.69968  0.10898  0.90478  1.0000
  H   H10       1.0  0.58735  0.03630  0.96890  1.0000
  N   N7        1.0  0.87067  0.88432  0.10307  1.0000
  N   N8        1.0  0.94149  0.90051  0.08878  1.0000
  H   H11       1.0  0.96304  0.94667  0.04802  1.0000
  N   N9        1.0  0.08777  0.34993  0.26995  1.0000
  N   N10       1.0  0.01777  0.31941  0.27675  1.0000
  H   H12       1.0  0.98735  0.32413  0.32236  1.0000
  N   N11       1.0  0.43321  0.01286  0.98957  1.0000
  N   N12       1.0  0.45989  0.06999  0.93913  1.0000
  H   H13       1.0  0.42422  0.10307  0.90992  1.0000
  H   H14       1.0  0.02026  0.95081  0.60046  1.0000
  H   H15       1.0  0.14184  0.85964  0.45206  1.0000
  N   N13       1.0  0.47279  0.79084  0.18560  1.0000
  N   N14       1.0  0.40197  0.77464  0.19989  1.0000
  H   H16       1.0  0.38042  0.72848  0.24065  1.0000
  N   N15       1.0  0.62115  0.65331  0.30702  1.0000
  N   N16       1.0  0.57147  0.59995  0.28916  1.0000
  H   H17       1.0  0.54992  0.55378  0.32992  1.0000
  H   H18       1.0  0.09378  0.89565  0.51071  1.0000
  N   N17       1.0  0.98406  0.97798  0.72303  1.0000
  N   N18       1.0  0.99095  0.04632  0.73088  1.0000
  H   H19       1.0  0.95016  0.07694  0.70933  1.0000
  H   H20       1.0  0.02485  0.94735  0.87311  1.0000
  H   H21       1.0  0.20098  0.81526  0.83753  1.0000
  N   N19       1.0  0.25236  0.77671  0.79530  1.0000
  N   N20       1.0  0.27545  0.83288  0.82754  1.0000
  H   H22       1.0  0.28702  0.82417  0.88475  1.0000
  H   H23       1.0  0.31798  0.72755  0.41646  1.0000
  N   N21       1.0  0.52119  0.74600  0.22522  1.0000
  N   N22       1.0  0.48905  0.79339  0.24835  1.0000
  H   H24       1.0  0.43184  0.78031  0.25992  1.0000
  N   N23       1.0  0.02089  0.25901  0.13487  1.0000
  N   N24       1.0  0.97303  0.25589  0.18641  1.0000
  H   H25       1.0  0.91832  0.22688  0.18294  1.0000
  N   N25       1.0  0.35876  0.69693  0.56655  1.0000
  N   N26       1.0  0.37306  0.68619  0.63736  1.0000
  H   H26       1.0  0.41385  0.65559  0.65890  1.0000
