data_image0
_chemical_formula_structural       Zn4O13C50HOH4OH2OH2OHOHOHOHOHOHOHOH2OH2OH2OHOHOH2OH4OHOH3OHOH
_chemical_formula_sum              "Zn4 O34 C50 H36"
_cell_length_a       21.3954
_cell_length_b       12.6453
_cell_length_c       21.3954
_cell_angle_alpha    89.9869
_cell_angle_beta     89.9754
_cell_angle_gamma    90.0273

_space_group_name_H-M_alt    "P 1"
_space_group_IT_number       1

loop_
  _space_group_symop_operation_xyz
  'x, y, z'

loop_
  _atom_site_type_symbol
  _atom_site_label
  _atom_site_symmetry_multiplicity
  _atom_site_fract_x
  _atom_site_fract_y
  _atom_site_fract_z
  _atom_site_occupancy
  Zn  Zn1       1.0  0.95794  0.57826  0.64572  1.0000
  Zn  Zn2       1.0  0.95788  0.40101  0.75048  1.0000
  Zn  Zn3       1.0  0.85315  0.57821  0.75048  1.0000
  Zn  Zn4       1.0  0.85316  0.40099  0.64574  1.0000
  O   O1        1.0  0.90553  0.48962  0.69810  1.0000
  O   O2        1.0  0.04561  0.55478  0.65960  1.0000
  O   O3        1.0  0.94396  0.42451  0.83816  1.0000
  O   O4        1.0  0.86708  0.72657  0.73657  1.0000
  O   O5        1.0  0.04556  0.42455  0.73657  1.0000
  O   O6        1.0  0.94407  0.72660  0.65960  1.0000
  O   O7        1.0  0.86702  0.55470  0.83816  1.0000
  O   O8        1.0  0.76548  0.55468  0.73659  1.0000
  O   O9        1.0  0.86708  0.42452  0.55806  1.0000
  O   O10       1.0  0.76548  0.42447  0.65965  1.0000
  O   O11       1.0  0.94407  0.55476  0.55804  1.0000
  O   O12       1.0  0.94396  0.25266  0.73660  1.0000
  O   O13       1.0  0.86702  0.25265  0.65965  1.0000
  C   C1        1.0  0.74274  0.48957  0.69812  1.0000
  C   C2        1.0  0.67310  0.48952  0.69812  1.0000
  C   C3        1.0  0.64044  0.55722  0.65797  1.0000
  C   C4        1.0  0.57500  0.55725  0.65797  1.0000
  C   C5        1.0  0.54223  0.48956  0.69810  1.0000
  C   C6        1.0  0.57491  0.42186  0.73825  1.0000
  C   C7        1.0  0.64034  0.42184  0.73826  1.0000
  C   C8        1.0  0.43853  0.39409  0.70314  1.0000
  C   C9        1.0  0.37310  0.39411  0.70313  1.0000
  C   C10       1.0  0.34041  0.48962  0.69809  1.0000
  C   C11       1.0  0.37317  0.58511  0.69305  1.0000
  C   C12       1.0  0.43861  0.58509  0.69306  1.0000
  C   C13       1.0  0.47128  0.48957  0.69810  1.0000
  C   C14       1.0  0.23679  0.55735  0.65794  1.0000
  C   C15       1.0  0.17136  0.55738  0.65795  1.0000
  C   C16       1.0  0.17127  0.42198  0.73822  1.0000
  C   C17       1.0  0.23670  0.42196  0.73823  1.0000
  C   C18       1.0  0.26946  0.48964  0.69808  1.0000
  C   C19       1.0  0.90550  0.21419  0.69812  1.0000
  C   C20       1.0  0.90555  0.09636  0.69810  1.0000
  C   C21       1.0  0.95400  0.05153  0.74647  1.0000
  C   C22       1.0  0.95389  0.92897  0.74664  1.0000
  C   C23       1.0  0.83952  0.92833  0.71584  1.0000
  C   C24       1.0  0.83976  0.05093  0.71621  1.0000
  C   C25       1.0  0.92261  0.05126  0.63183  1.0000
  C   C26       1.0  0.92409  0.92866  0.63217  1.0000
  C   C27       1.0  0.06895  0.48967  0.69809  1.0000
  C   C28       1.0  0.13860  0.48969  0.69808  1.0000
  C   C29       1.0  0.90558  0.48964  0.53468  1.0000
  C   C30       1.0  0.90560  0.48965  0.46504  1.0000
  C   C31       1.0  0.90558  0.76612  0.69808  1.0000
  C   C32       1.0  0.90560  0.88396  0.69807  1.0000
  C   C33       1.0  0.94569  0.55747  0.43232  1.0000
  C   C34       1.0  0.94569  0.55751  0.36688  1.0000
  C   C35       1.0  0.90561  0.48972  0.33417  1.0000
  C   C36       1.0  0.86552  0.42190  0.36690  1.0000
  C   C37       1.0  0.86552  0.42186  0.43234  1.0000
  C   C38       1.0  0.90065  0.39427  0.23050  1.0000
  C   C39       1.0  0.90066  0.39430  0.16507  1.0000
  C   C40       1.0  0.90561  0.48984  0.13235  1.0000
  C   C41       1.0  0.91058  0.58534  0.16507  1.0000
  C   C42       1.0  0.91057  0.58530  0.23051  1.0000
  C   C43       1.0  0.90561  0.48976  0.26322  1.0000
  C   C44       1.0  0.94570  0.55771  0.02867  1.0000
  C   C45       1.0  0.94569  0.55776  0.96324  1.0000
  C   C46       1.0  0.86553  0.42213  0.96326  1.0000
  C   C47       1.0  0.86553  0.42209  0.02870  1.0000
  C   C48       1.0  0.90562  0.48988  0.06140  1.0000
  C   C49       1.0  0.90551  0.48967  0.86089  1.0000
  C   C50       1.0  0.90561  0.48996  0.93053  1.0000
  H   H1        1.0  0.54840  0.61238  0.62528  1.0000
  O   O14       1.0  0.67558  0.34881  0.78156  1.0000
  H   H2        1.0  0.72658  0.36018  0.77482  1.0000
  H   H3        1.0  0.46528  0.66285  0.68895  1.0000
  H   H4        1.0  0.83288  0.36671  0.34027  1.0000
  H   H5        1.0  0.89141  0.89802  0.59420  1.0000
  O   O15       1.0  0.67577  0.63022  0.61468  1.0000
  H   H6        1.0  0.72676  0.61884  0.62142  1.0000
  H   H7        1.0  0.80242  0.08058  0.68250  1.0000
  O   O16       1.0  0.82008  0.88758  0.77929  1.0000
  H   H8        1.0  0.77329  0.91950  0.79134  1.0000
  H   H9        1.0  0.88732  0.08026  0.59579  1.0000
  O   O17       1.0  0.98893  0.63082  0.06395  1.0000
  H   H10       1.0  0.97819  0.71403  0.05141  1.0000
  O   O18       1.0  0.47377  0.29107  0.70858  1.0000
  H   H11       1.0  0.52477  0.30710  0.70775  1.0000
  O   O19       1.0  0.98892  0.63058  0.46759  1.0000
  H   H12       1.0  0.01679  0.67775  0.43383  1.0000
  O   O20       1.0  0.33794  0.68814  0.68762  1.0000
  H   H13       1.0  0.28693  0.67212  0.68847  1.0000
  O   O21       1.0  0.01908  0.09072  0.73195  1.0000
  H   H14       1.0  0.03272  0.06447  0.68436  1.0000
  O   O22       1.0  0.98526  0.09244  0.61025  1.0000
  H   H15       1.0  0.01750  0.02499  0.60239  1.0000
  O   O23       1.0  0.27214  0.63036  0.61466  1.0000
  H   H16       1.0  0.23842  0.67745  0.58675  1.0000
  O   O24       1.0  0.82229  0.34902  0.92800  1.0000
  H   H17       1.0  0.85033  0.29510  0.89817  1.0000
  H   H18       1.0  0.89645  0.31649  0.25713  1.0000
  O   O25       1.0  0.79035  0.88926  0.67080  1.0000
  H   H19       1.0  0.81255  0.83774  0.63515  1.0000
  H   H20       1.0  0.97273  0.89967  0.61876  1.0000
  O   O26       1.0  0.53957  0.34885  0.78154  1.0000
  H   H21       1.0  0.48858  0.36023  0.77479  1.0000
  H   H22       1.0  0.97833  0.61274  0.34023  1.0000
  O   O27       1.0  0.82066  0.08872  0.78037  1.0000
  H   H23       1.0  0.77307  0.05901  0.79131  1.0000
  O   O28       1.0  0.13612  0.63040  0.61465  1.0000
  H   H24       1.0  0.16990  0.67745  0.58674  1.0000
  O   O29       1.0  0.93893  0.89003  0.81167  1.0000
  H   H25       1.0  0.89575  0.84141  0.81032  1.0000
  H   H26       1.0  0.83287  0.36664  0.45898  1.0000
  O   O30       1.0  0.98893  0.63090  0.92794  1.0000
  H   H27       1.0  0.01681  0.67802  0.96167  1.0000
  H   H28       1.0  0.83289  0.36686  0.05534  1.0000
  H   H29       1.0  0.14459  0.36687  0.77090  1.0000
  H   H30       1.0  0.26330  0.36683  0.77091  1.0000
  O   O31       1.0  0.33776  0.29112  0.70857  1.0000
  H   H31       1.0  0.37148  0.22470  0.71209  1.0000
  O   O32       1.0  0.01879  0.88922  0.73194  1.0000
  H   H32       1.0  0.05053  0.95757  0.72464  1.0000
  H   H33       1.0  0.94283  0.08228  0.79529  1.0000
  H   H34       1.0  0.91461  0.66306  0.25715  1.0000
  O   O33       1.0  0.91591  0.68839  0.12980  1.0000
  H   H35       1.0  0.87393  0.69922  0.10002  1.0000
  O   O34       1.0  0.89530  0.29131  0.12977  1.0000
  H   H36       1.0  0.89184  0.22487  0.16351  1.0000
