data_image0
_chemical_formula_structural       Zn8O26C64H6N2H8N2H8N2H4N2H12N2H8
_chemical_formula_sum              "Zn8 O26 C64 H46 N10"
_cell_length_a       12.7594
_cell_length_b       19.1211
_cell_length_c       12.7594
_cell_angle_alpha    92.404
_cell_angle_beta     89.9804
_cell_angle_gamma    92.4691

_space_group_name_H-M_alt    "P 1"
_space_group_IT_number       1

loop_
  _space_group_symop_operation_xyz
  'x, y, z'

loop_
  _atom_site_type_symbol
  _atom_site_label
  _atom_site_symmetry_multiplicity
  _atom_site_fract_x
  _atom_site_fract_y
  _atom_site_fract_z
  _atom_site_occupancy
  Zn  Zn1       1.0  0.58833  0.72043  0.38823  1.0000
  Zn  Zn2       1.0  0.08833  0.22043  0.88823  1.0000
  Zn  Zn3       1.0  0.58069  0.60296  0.55643  1.0000
  Zn  Zn4       1.0  0.08069  0.10296  0.05643  1.0000
  Zn  Zn5       1.0  0.41263  0.72039  0.56389  1.0000
  Zn  Zn6       1.0  0.91263  0.22039  0.06389  1.0000
  Zn  Zn7       1.0  0.40509  0.60301  0.38079  1.0000
  Zn  Zn8       1.0  0.90509  0.10301  0.88079  1.0000
  O   O1        1.0  0.49669  0.66170  0.47233  1.0000
  O   O2        1.0  0.99669  0.16170  0.97234  1.0000
  O   O3        1.0  0.73434  0.70484  0.41053  1.0000
  O   O4        1.0  0.23434  0.20484  0.91053  1.0000
  O   O5        1.0  0.55835  0.61850  0.70444  1.0000
  O   O6        1.0  0.05835  0.11850  0.20444  1.0000
  O   O7        1.0  0.44229  0.81868  0.54681  1.0000
  O   O8        1.0  0.94229  0.31868  0.04681  1.0000
  O   O9        1.0  0.72872  0.61854  0.53411  1.0000
  O   O10       1.0  0.22872  0.11854  0.03411  1.0000
  O   O11       1.0  0.57138  0.81871  0.41776  1.0000
  O   O12       1.0  0.07138  0.31871  0.91776  1.0000
  O   O13       1.0  0.43488  0.70478  0.70992  1.0000
  O   O14       1.0  0.93488  0.20478  0.20992  1.0000
  O   O15       1.0  0.26461  0.70483  0.53961  1.0000
  O   O16       1.0  0.76461  0.20483  0.03961  1.0000
  O   O17       1.0  0.42944  0.61862  0.23476  1.0000
  O   O18       1.0  0.92944  0.11862  0.73476  1.0000
  O   O19       1.0  0.25907  0.61859  0.40509  1.0000
  O   O20       1.0  0.75907  0.11859  0.90509  1.0000
  O   O21       1.0  0.56407  0.70489  0.24022  1.0000
  O   O22       1.0  0.06407  0.20489  0.74022  1.0000
  O   O23       1.0  0.55104  0.50468  0.52690  1.0000
  O   O24       1.0  0.05104  0.00468  0.02690  1.0000
  O   O25       1.0  0.42203  0.50472  0.39786  1.0000
  O   O26       1.0  0.92203  0.00472  0.89786  1.0000
  C   C1        1.0  0.22372  0.66171  0.47235  1.0000
  C   C2        1.0  0.72372  0.16171  0.97235  1.0000
  C   C3        1.0  0.10694  0.66170  0.47233  1.0000
  C   C4        1.0  0.60694  0.16170  0.97233  1.0000
  C   C5        1.0  0.93949  0.61672  0.40238  1.0000
  C   C6        1.0  0.43949  0.11671  0.90238  1.0000
  C   C7        1.0  0.04921  0.61672  0.40239  1.0000
  C   C8        1.0  0.54921  0.11672  0.90239  1.0000
  C   C9        1.0  0.05494  0.70666  0.54227  1.0000
  C   C10       1.0  0.55494  0.20666  0.04227  1.0000
  C   C11       1.0  0.94522  0.70665  0.54226  1.0000
  C   C12       1.0  0.44522  0.20665  0.04226  1.0000
  C   C13       1.0  0.48492  0.47922  0.46074  1.0000
  C   C14       1.0  0.98492  0.97922  0.96074  1.0000
  C   C15       1.0  0.47998  0.40115  0.45575  1.0000
  C   C16       1.0  0.97998  0.90115  0.95575  1.0000
  C   C17       1.0  0.54488  0.36448  0.52053  1.0000
  C   C18       1.0  0.04488  0.86448  0.02053  1.0000
  C   C19       1.0  0.54024  0.29113  0.51583  1.0000
  C   C20       1.0  0.04024  0.79113  0.01583  1.0000
  C   C21       1.0  0.47070  0.25445  0.44635  1.0000
  C   C22       1.0  0.97070  0.75445  0.94635  1.0000
  C   C23       1.0  0.40579  0.29113  0.38156  1.0000
  C   C24       1.0  0.90579  0.79113  0.88156  1.0000
  C   C25       1.0  0.41044  0.36448  0.38626  1.0000
  C   C26       1.0  0.91044  0.86448  0.88626  1.0000
  C   C27       1.0  0.45332  0.03298  0.42880  1.0000
  C   C28       1.0  0.95331  0.53298  0.92880  1.0000
  C   C29       1.0  0.44867  0.95963  0.42411  1.0000
  C   C30       1.0  0.94867  0.45963  0.92411  1.0000
  C   C31       1.0  0.58312  0.95963  0.55838  1.0000
  C   C32       1.0  0.08312  0.45963  0.05838  1.0000
  C   C33       1.0  0.58776  0.03298  0.56308  1.0000
  C   C34       1.0  0.08776  0.53298  0.06308  1.0000
  C   C35       1.0  0.52286  0.06966  0.49828  1.0000
  C   C36       1.0  0.02286  0.56966  0.99828  1.0000
  C   C37       1.0  0.46595  0.17947  0.44154  1.0000
  C   C38       1.0  0.96595  0.67947  0.94154  1.0000
  C   C39       1.0  0.52761  0.14463  0.50309  1.0000
  C   C40       1.0  0.02761  0.64463  0.00309  1.0000
  C   C41       1.0  0.77072  0.66168  0.47232  1.0000
  C   C42       1.0  0.27072  0.16168  0.97232  1.0000
  C   C43       1.0  0.88749  0.66168  0.47231  1.0000
  C   C44       1.0  0.38749  0.16168  0.97231  1.0000
  C   C45       1.0  0.49677  0.66176  0.19831  1.0000
  C   C46       1.0  0.99677  0.16176  0.69831  1.0000
  C   C47       1.0  0.49680  0.66179  0.08153  1.0000
  C   C48       1.0  0.99680  0.16179  0.58153  1.0000
  C   C49       1.0  0.50853  0.84489  0.48395  1.0000
  C   C50       1.0  0.00853  0.34489  0.98395  1.0000
  C   C51       1.0  0.51357  0.92295  0.48889  1.0000
  C   C52       1.0  0.01357  0.42295  0.98889  1.0000
  C   C53       1.0  0.56691  0.70672  0.02951  1.0000
  C   C54       1.0  0.06691  0.20672  0.52951  1.0000
  C   C55       1.0  0.56693  0.70675  0.91979  1.0000
  C   C56       1.0  0.06693  0.20675  0.41979  1.0000
  C   C57       1.0  0.42673  0.61692  0.91412  1.0000
  C   C58       1.0  0.92673  0.11692  0.41411  1.0000
  C   C59       1.0  0.42671  0.61690  0.02384  1.0000
  C   C60       1.0  0.92671  0.11690  0.52384  1.0000
  C   C61       1.0  0.49667  0.66168  0.74530  1.0000
  C   C62       1.0  0.99667  0.16168  0.24530  1.0000
  C   C63       1.0  0.49685  0.66185  0.86209  1.0000
  C   C64       1.0  0.99685  0.16185  0.36209  1.0000
  H   H1        1.0  0.10195  0.74328  0.59922  1.0000
  H   H2        1.0  0.60195  0.24328  0.09922  1.0000
  H   H3        1.0  0.35759  0.39433  0.33350  1.0000
  H   H4        1.0  0.85759  0.89434  0.83350  1.0000
  H   H5        1.0  0.58424  0.17449  0.55965  1.0000
  H   H6        1.0  0.08424  0.67450  0.05965  1.0000
  N   N1        1.0  0.64251  0.75514  0.09174  1.0000
  N   N2        1.0  0.14251  0.25514  0.59174  1.0000
  H   H7        1.0  0.68934  0.72658  0.13543  1.0000
  H   H8        1.0  0.18934  0.22658  0.63543  1.0000
  H   H9        1.0  0.68685  0.78359  0.04206  1.0000
  H   H10       1.0  0.18685  0.28359  0.54205  1.0000
  H   H11       1.0  0.90288  0.74327  0.59921  1.0000
  H   H12       1.0  0.40288  0.24327  0.09921  1.0000
  H   H13       1.0  0.36967  0.58037  0.86713  1.0000
  H   H14       1.0  0.86967  0.08037  0.36713  1.0000
  N   N3        1.0  0.61989  0.40404  0.59548  1.0000
  N   N4        1.0  0.11989  0.90404  0.09548  1.0000
  H   H15       1.0  0.66030  0.36967  0.63580  1.0000
  H   H16       1.0  0.16030  0.86967  0.13580  1.0000
  H   H17       1.0  0.67041  0.43452  0.55462  1.0000
  H   H18       1.0  0.17041  0.93452  0.05462  1.0000
  H   H19       1.0  0.59309  0.26127  0.56859  1.0000
  H   H20       1.0  0.09309  0.76127  0.06859  1.0000
  H   H21       1.0  0.63596  0.92977  0.61113  1.0000
  H   H22       1.0  0.13596  0.42977  0.11113  1.0000
  N   N5        1.0  0.66278  0.07254  0.63800  1.0000
  N   N6        1.0  0.16278  0.57254  0.13800  1.0000
  H   H23       1.0  0.70320  0.03818  0.67832  1.0000
  H   H24       1.0  0.20320  0.53818  0.17832  1.0000
  H   H25       1.0  0.71330  0.10302  0.59713  1.0000
  H   H26       1.0  0.21330  0.60302  0.09713  1.0000
  N   N7        1.0  0.64253  0.75521  0.86368  1.0000
  N   N8        1.0  0.14253  0.25521  0.36368  1.0000
  H   H27       1.0  0.68692  0.78365  0.91688  1.0000
  H   H28       1.0  0.18692  0.28365  0.41688  1.0000
  H   H29       1.0  0.68931  0.72664  0.81633  1.0000
  H   H30       1.0  0.18931  0.22664  0.31633  1.0000
  H   H31       1.0  0.39205  0.92977  0.36751  1.0000
  H   H32       1.0  0.89205  0.42977  0.86752  1.0000
  H   H33       1.0  0.40047  0.06283  0.37605  1.0000
  H   H34       1.0  0.90047  0.56283  0.87605  1.0000
  H   H35       1.0  0.36961  0.58031  0.06619  1.0000
  H   H36       1.0  0.86961  0.08031  0.56619  1.0000
  H   H37       1.0  0.09154  0.58011  0.34545  1.0000
  H   H38       1.0  0.59154  0.08011  0.84545  1.0000
  N   N9        1.0  0.87723  0.56821  0.32694  1.0000
  N   N10       1.0  0.37722  0.06821  0.82695  1.0000
  H   H39       1.0  0.92682  0.53972  0.28265  1.0000
  H   H40       1.0  0.42682  0.03972  0.78265  1.0000
  H   H41       1.0  0.82960  0.53573  0.36773  1.0000
  H   H42       1.0  0.32960  0.03573  0.86773  1.0000
  H   H43       1.0  0.34917  0.26126  0.32498  1.0000
  H   H44       1.0  0.84917  0.76126  0.82498  1.0000
  H   H45       1.0  0.40933  0.14960  0.38498  1.0000
  H   H46       1.0  0.90933  0.64960  0.88498  1.0000
