data_image0
_chemical_formula_structural       Zn12O39C48H3O3H3O3H6
_chemical_formula_sum              "Zn12 O45 C48 H12"
_cell_length_a       10.6862
_cell_length_b       16.6255
_cell_length_c       10.6866
_cell_angle_alpha    94.4073
_cell_angle_beta     89.6919
_cell_angle_gamma    94.4073

_space_group_name_H-M_alt    "P 1"
_space_group_IT_number       1

loop_
  _space_group_symop_operation_xyz
  'x, y, z'

loop_
  _atom_site_type_symbol
  _atom_site_label
  _atom_site_symmetry_multiplicity
  _atom_site_fract_x
  _atom_site_fract_y
  _atom_site_fract_z
  _atom_site_occupancy
  Zn  Zn1       1.0  0.97223  0.80342  0.56238  1.0000
  Zn  Zn2       1.0  0.30556  0.13675  0.89571  1.0000
  Zn  Zn3       1.0  0.63890  0.47009  0.22904  1.0000
  Zn  Zn4       1.0  0.95596  0.65748  0.35261  1.0000
  Zn  Zn5       1.0  0.28929  0.99081  0.68595  1.0000
  Zn  Zn6       1.0  0.62263  0.32415  0.01928  1.0000
  Zn  Zn7       1.0  0.74634  0.78280  0.36869  1.0000
  Zn  Zn8       1.0  0.07968  0.11613  0.70203  1.0000
  Zn  Zn9       1.0  0.41301  0.44946  0.03536  1.0000
  Zn  Zn10      1.0  0.76239  0.65911  0.57839  1.0000
  Zn  Zn11      1.0  0.09572  0.99245  0.91172  1.0000
  Zn  Zn12      1.0  0.42905  0.32578  0.24506  1.0000
  O   O1        1.0  0.85923  0.72570  0.46552  1.0000
  O   O2        1.0  0.19256  0.05904  0.79885  1.0000
  O   O3        1.0  0.52590  0.39237  0.13218  1.0000
  O   O4        1.0  0.14562  0.79201  0.52112  1.0000
  O   O5        1.0  0.47895  0.12534  0.85445  1.0000
  O   O6        1.0  0.81228  0.45868  0.18779  1.0000
  O   O7        1.0  0.91463  0.66479  0.17920  1.0000
  O   O8        1.0  0.24796  0.99812  0.51253  1.0000
  O   O9        1.0  0.58129  0.33145  0.84587  1.0000
  O   O10       1.0  0.77640  0.89837  0.39441  1.0000
  O   O11       1.0  0.10974  0.23170  0.72775  1.0000
  O   O12       1.0  0.44307  0.56504  0.06108  1.0000
  O   O13       1.0  0.13366  0.68479  0.36701  1.0000
  O   O14       1.0  0.46699  0.01812  0.70034  1.0000
  O   O15       1.0  0.80033  0.35145  0.03367  1.0000
  O   O16       1.0  0.94236  0.91352  0.53671  1.0000
  O   O17       1.0  0.27569  0.24686  0.87005  1.0000
  O   O18       1.0  0.60903  0.58019  0.20338  1.0000
  O   O19       1.0  0.76062  0.75686  0.19101  1.0000
  O   O20       1.0  0.09396  0.09019  0.52435  1.0000
  O   O21       1.0  0.42729  0.42352  0.85768  1.0000
  O   O22       1.0  0.57293  0.75844  0.40994  1.0000
  O   O23       1.0  0.90626  0.09177  0.74328  1.0000
  O   O24       1.0  0.23959  0.42511  0.07661  1.0000
  O   O25       1.0  0.80375  0.68757  0.75181  1.0000
  O   O26       1.0  0.13708  0.02091  0.08515  1.0000
  O   O27       1.0  0.47042  0.35424  0.41848  1.0000
  O   O28       1.0  0.58472  0.66757  0.56400  1.0000
  O   O29       1.0  0.91805  0.00091  0.89734  1.0000
  O   O30       1.0  0.25138  0.33424  0.23067  1.0000
  O   O31       1.0  0.95792  0.79359  0.74005  1.0000
  O   O32       1.0  0.29125  0.12693  0.07338  1.0000
  O   O33       1.0  0.62459  0.46026  0.40671  1.0000
  O   O34       1.0  0.93019  0.54486  0.38253  1.0000
  O   O35       1.0  0.26352  0.87819  0.71587  1.0000
  O   O36       1.0  0.59685  0.21152  0.04920  1.0000
  O   O37       1.0  0.78797  0.54606  0.54841  1.0000
  O   O38       1.0  0.12130  0.87939  0.88174  1.0000
  O   O39       1.0  0.45464  0.21272  0.21508  1.0000
  C   C1        1.0  0.53330  0.71094  0.49046  1.0000
  C   C2        1.0  0.86664  0.04428  0.82379  1.0000
  C   C3        1.0  0.19997  0.37761  0.15712  1.0000
  C   C4        1.0  0.39387  0.70461  0.50116  1.0000
  C   C5        1.0  0.72721  0.03795  0.83449  1.0000
  C   C6        1.0  0.06054  0.37128  0.16782  1.0000
  C   C7        1.0  0.85909  0.51620  0.46549  1.0000
  C   C8        1.0  0.19242  0.84954  0.79882  1.0000
  C   C9        1.0  0.52576  0.18287  0.13216  1.0000
  C   C10       1.0  0.85915  0.42659  0.46551  1.0000
  C   C11       1.0  0.19248  0.75992  0.79884  1.0000
  C   C12       1.0  0.52582  0.09325  0.13218  1.0000
  C   C13       1.0  0.85920  0.35381  0.46553  1.0000
  C   C14       1.0  0.19253  0.68714  0.79886  1.0000
  C   C15       1.0  0.52587  0.02047  0.13220  1.0000
  C   C16       1.0  0.85927  0.26250  0.46555  1.0000
  C   C17       1.0  0.19261  0.59584  0.79889  1.0000
  C   C18       1.0  0.52594  0.92917  0.13222  1.0000
  C   C19       1.0  0.85934  0.18973  0.46556  1.0000
  C   C20       1.0  0.19267  0.52306  0.79890  1.0000
  C   C21       1.0  0.52601  0.85640  0.13223  1.0000
  C   C22       1.0  0.85942  0.09842  0.46558  1.0000
  C   C23       1.0  0.19275  0.43175  0.79892  1.0000
  C   C24       1.0  0.52608  0.76509  0.13225  1.0000
  C   C25       1.0  0.18643  0.74052  0.44048  1.0000
  C   C26       1.0  0.51976  0.07385  0.77382  1.0000
  C   C27       1.0  0.85309  0.40718  0.10715  1.0000
  C   C28       1.0  0.32586  0.74683  0.42981  1.0000
  C   C29       1.0  0.65919  0.08016  0.76315  1.0000
  C   C30       1.0  0.99253  0.41350  0.09648  1.0000
  C   C31       1.0  0.88444  0.74307  0.79272  1.0000
  C   C32       1.0  0.21777  0.07640  0.12605  1.0000
  C   C33       1.0  0.55111  0.40973  0.45939  1.0000
  C   C34       1.0  0.89518  0.75047  0.93215  1.0000
  C   C35       1.0  0.22852  0.08380  0.26549  1.0000
  C   C36       1.0  0.56185  0.41713  0.59882  1.0000
  C   C37       1.0  0.85941  0.93602  0.46557  1.0000
  C   C38       1.0  0.19274  0.26936  0.79890  1.0000
  C   C39       1.0  0.52607  0.60269  0.13224  1.0000
  C   C40       1.0  0.85948  0.02565  0.46559  1.0000
  C   C41       1.0  0.19281  0.35898  0.79893  1.0000
  C   C42       1.0  0.52615  0.69232  0.13226  1.0000
  C   C43       1.0  0.83419  0.70847  0.13958  1.0000
  C   C44       1.0  0.16752  0.04180  0.47292  1.0000
  C   C45       1.0  0.50086  0.37513  0.80625  1.0000
  C   C46       1.0  0.82369  0.70131  0.00013  1.0000
  C   C47       1.0  0.15702  0.03464  0.33347  1.0000
  C   C48       1.0  0.49036  0.36797  0.66680  1.0000
  H   H1        1.0  0.34543  0.66362  0.57042  1.0000
  H   H2        1.0  0.67876  0.99695  0.90375  1.0000
  H   H3        1.0  0.01210  0.33028  0.23708  1.0000
  O   O40       1.0  0.73171  0.63805  0.93594  1.0000
  O   O41       1.0  0.06505  0.97139  0.26928  1.0000
  O   O42       1.0  0.39838  0.30472  0.60261  1.0000
  H   H4        1.0  0.73742  0.64198  0.83283  1.0000
  H   H5        1.0  0.07075  0.97531  0.16616  1.0000
  H   H6        1.0  0.40408  0.30865  0.49950  1.0000
  O   O43       1.0  0.98714  0.81374  0.99635  1.0000
  O   O44       1.0  0.32047  0.14707  0.32968  1.0000
  O   O45       1.0  0.65380  0.48040  0.66301  1.0000
  H   H7        1.0  0.98142  0.80983  0.09947  1.0000
  H   H8        1.0  0.31475  0.14316  0.43280  1.0000
  H   H9        1.0  0.64808  0.47649  0.76613  1.0000
  H   H10       1.0  0.37430  0.78782  0.36055  1.0000
  H   H11       1.0  0.70763  0.12115  0.69388  1.0000
  H   H12       1.0  0.04096  0.45449  0.02722  1.0000
