data_image0
_chemical_formula_structural       Zn4O13C54H2OC2H8OC2H9OC2H6OC2H7OC2H6OC2H6OC2H5OC2H5OC2H5OC2H9OC2H6
_chemical_formula_sum              "Zn4 O24 C76 H74"
_cell_length_a       21.3954
_cell_length_b       18.0506
_cell_length_c       21.3954
_cell_angle_alpha    89.982
_cell_angle_beta     89.9754
_cell_angle_gamma    90.0335

_space_group_name_H-M_alt    "P 1"
_space_group_IT_number       1

loop_
  _space_group_symop_operation_xyz
  'x, y, z'

loop_
  _atom_site_type_symbol
  _atom_site_label
  _atom_site_symmetry_multiplicity
  _atom_site_fract_x
  _atom_site_fract_y
  _atom_site_fract_z
  _atom_site_occupancy
  Zn  Zn1       1.0  0.95791  0.70455  0.64574  1.0000
  Zn  Zn2       1.0  0.95784  0.58038  0.75051  1.0000
  Zn  Zn3       1.0  0.85313  0.70452  0.75050  1.0000
  Zn  Zn4       1.0  0.85312  0.58037  0.64577  1.0000
  O   O1        1.0  0.90550  0.64245  0.69813  1.0000
  O   O2        1.0  0.04558  0.68810  0.65963  1.0000
  O   O3        1.0  0.94392  0.59684  0.83819  1.0000
  O   O4        1.0  0.86706  0.80845  0.73658  1.0000
  O   O5        1.0  0.04553  0.59687  0.73660  1.0000
  O   O6        1.0  0.94405  0.80847  0.65961  1.0000
  O   O7        1.0  0.86699  0.68804  0.83818  1.0000
  O   O8        1.0  0.76545  0.68803  0.73662  1.0000
  O   O9        1.0  0.86705  0.59685  0.55809  1.0000
  O   O10       1.0  0.76544  0.59682  0.65968  1.0000
  O   O11       1.0  0.94404  0.68808  0.55806  1.0000
  O   O12       1.0  0.94391  0.47645  0.73664  1.0000
  O   O13       1.0  0.86697  0.47644  0.65969  1.0000
  C   C1        1.0  0.74271  0.64242  0.69815  1.0000
  C   C2        1.0  0.67307  0.64238  0.69814  1.0000
  C   C3        1.0  0.64041  0.68981  0.65800  1.0000
  C   C4        1.0  0.57497  0.68983  0.65799  1.0000
  C   C5        1.0  0.54220  0.64241  0.69813  1.0000
  C   C6        1.0  0.57487  0.59498  0.73828  1.0000
  C   C7        1.0  0.64031  0.59497  0.73829  1.0000
  C   C8        1.0  0.43849  0.57553  0.70317  1.0000
  C   C9        1.0  0.37306  0.57554  0.70316  1.0000
  C   C10       1.0  0.34038  0.64245  0.69812  1.0000
  C   C11       1.0  0.37315  0.70935  0.69307  1.0000
  C   C12       1.0  0.43858  0.70934  0.69308  1.0000
  C   C13       1.0  0.47125  0.64242  0.69813  1.0000
  C   C14       1.0  0.23677  0.68990  0.65797  1.0000
  C   C15       1.0  0.17133  0.68992  0.65797  1.0000
  C   C16       1.0  0.17123  0.59507  0.73825  1.0000
  C   C17       1.0  0.23666  0.59506  0.73825  1.0000
  C   C18       1.0  0.26943  0.64247  0.69811  1.0000
  C   C19       1.0  0.90545  0.44950  0.69816  1.0000
  C   C20       1.0  0.90549  0.36696  0.69815  1.0000
  C   C21       1.0  0.94741  0.16754  0.73993  1.0000
  C   C22       1.0  0.96272  0.11820  0.68275  1.0000
  C   C23       1.0  0.90552  0.21583  0.69812  1.0000
  C   C24       1.0  0.89028  0.11808  0.75528  1.0000
  C   C25       1.0  0.90556  0.06984  0.69810  1.0000
  C   C26       1.0  0.92086  0.16757  0.64091  1.0000
  C   C27       1.0  0.84839  0.16746  0.71347  1.0000
  C   C28       1.0  0.86368  0.11815  0.65625  1.0000
  C   C29       1.0  0.90550  0.29992  0.69813  1.0000
  C   C30       1.0  0.90558  0.98574  0.69808  1.0000
  C   C31       1.0  0.06892  0.64249  0.69811  1.0000
  C   C32       1.0  0.13856  0.64250  0.69810  1.0000
  C   C33       1.0  0.90555  0.64247  0.53471  1.0000
  C   C34       1.0  0.90557  0.64248  0.46507  1.0000
  C   C35       1.0  0.90556  0.83616  0.69809  1.0000
  C   C36       1.0  0.90559  0.91871  0.69808  1.0000
  C   C37       1.0  0.94566  0.68999  0.43234  1.0000
  C   C38       1.0  0.94566  0.69002  0.36690  1.0000
  C   C39       1.0  0.90558  0.64253  0.33420  1.0000
  C   C40       1.0  0.86548  0.59501  0.36693  1.0000
  C   C41       1.0  0.86548  0.59499  0.43237  1.0000
  C   C42       1.0  0.90061  0.57565  0.23053  1.0000
  C   C43       1.0  0.90062  0.57568  0.16510  1.0000
  C   C44       1.0  0.90558  0.64260  0.13238  1.0000
  C   C45       1.0  0.91055  0.70951  0.16510  1.0000
  C   C46       1.0  0.91055  0.70948  0.23053  1.0000
  C   C47       1.0  0.90558  0.64255  0.26324  1.0000
  C   C48       1.0  0.94567  0.69015  0.02870  1.0000
  C   C49       1.0  0.94566  0.69019  0.96326  1.0000
  C   C50       1.0  0.86549  0.59517  0.96329  1.0000
  C   C51       1.0  0.86549  0.59515  0.02873  1.0000
  C   C52       1.0  0.90559  0.64264  0.06142  1.0000
  C   C53       1.0  0.90548  0.64249  0.86092  1.0000
  C   C54       1.0  0.90558  0.64269  0.93056  1.0000
  H   H1        1.0  0.26344  0.72851  0.62528  1.0000
  H   H2        1.0  0.14474  0.72855  0.62528  1.0000
  O   O14       1.0  0.13931  0.54903  0.77718  1.0000
  C   C55       1.0  0.03846  0.50704  0.81278  1.0000
  C   C56       1.0  0.07454  0.55921  0.76865  1.0000
  H   H3        1.0  0.98608  0.51526  0.80591  1.0000
  H   H4        1.0  0.05124  0.44712  0.80187  1.0000
  H   H5        1.0  0.05134  0.52016  0.86328  1.0000
  H   H6        1.0  0.06167  0.54616  0.71814  1.0000
  H   H7        1.0  0.06175  0.61911  0.77962  1.0000
  H   H8        1.0  0.97830  0.72871  0.34025  1.0000
  H   H9        1.0  0.54837  0.72845  0.62530  1.0000
  H   H10       1.0  0.93372  0.18922  0.59252  1.0000
  O   O15       1.0  0.26837  0.54887  0.77718  1.0000
  C   C57       1.0  0.28826  0.42260  0.80781  1.0000
  C   C58       1.0  0.25233  0.47481  0.76367  1.0000
  H   H11       1.0  0.27530  0.36271  0.79692  1.0000
  H   H12       1.0  0.34066  0.43067  0.80092  1.0000
  H   H13       1.0  0.27539  0.43577  0.85831  1.0000
  H   H14       1.0  0.26515  0.46167  0.71316  1.0000
  H   H15       1.0  0.19994  0.46673  0.77062  1.0000
  H   H16       1.0  0.98285  0.18922  0.77526  1.0000
  H   H17       1.0  0.82827  0.09660  0.62084  1.0000
  H   H18       1.0  0.80007  0.18912  0.72649  1.0000
  H   H19       1.0  0.01105  0.09655  0.66975  1.0000
  O   O16       1.0  0.91525  0.77452  0.13330  1.0000
  C   C59       1.0  0.86735  0.85775  0.05943  1.0000
  C   C60       1.0  0.86195  0.78412  0.09542  1.0000
  H   H20       1.0  0.82428  0.86553  0.02878  1.0000
  H   H21       1.0  0.87086  0.90559  0.09403  1.0000
  H   H22       1.0  0.91095  0.85663  0.02880  1.0000
  H   H23       1.0  0.81835  0.78517  0.12605  1.0000
  H   H24       1.0  0.85848  0.73631  0.06078  1.0000
  H   H25       1.0  0.87737  0.09635  0.80362  1.0000
  O   O17       1.0  0.82663  0.54879  0.46423  1.0000
  C   C61       1.0  0.81817  0.44847  0.53808  1.0000
  C   C62       1.0  0.86224  0.50075  0.50204  1.0000
  H   H26       1.0  0.84695  0.40960  0.56865  1.0000
  H   H27       1.0  0.78543  0.48250  0.56878  1.0000
  H   H28       1.0  0.78951  0.41456  0.50346  1.0000
  H   H29       1.0  0.89094  0.53466  0.53662  1.0000
  H   H30       1.0  0.89494  0.46667  0.47134  1.0000
  H   H31       1.0  0.91459  0.76396  0.25717  1.0000
  H   H32       1.0  0.83284  0.55635  0.34030  1.0000
  O   O18       1.0  0.34145  0.77436  0.68806  1.0000
  C   C63       1.0  0.32156  0.88310  0.62582  1.0000
  C   C64       1.0  0.35749  0.80948  0.63141  1.0000
  H   H33       1.0  0.33454  0.91152  0.58002  1.0000
  H   H34       1.0  0.26916  0.87166  0.62664  1.0000
  H   H35       1.0  0.33443  0.92063  0.66669  1.0000
  H   H36       1.0  0.34468  0.77192  0.59055  1.0000
  H   H37       1.0  0.40989  0.82097  0.63061  1.0000
  H   H38       1.0  0.97831  0.72865  0.45896  1.0000
  O   O19       1.0  0.34133  0.51050  0.70809  1.0000
  C   C65       1.0  0.34814  0.37777  0.71807  1.0000
  C   C66       1.0  0.38415  0.45139  0.71250  1.0000
  H   H39       1.0  0.38275  0.32996  0.72162  1.0000
  H   H40       1.0  0.31750  0.37896  0.76167  1.0000
  H   H41       1.0  0.31751  0.36990  0.67500  1.0000
  H   H42       1.0  0.41482  0.45931  0.75554  1.0000
  H   H43       1.0  0.41475  0.45016  0.66888  1.0000
  H   H44       1.0  0.97831  0.72882  0.05532  1.0000
  O   O20       1.0  0.89566  0.51062  0.26227  1.0000
  C   C67       1.0  0.83342  0.40189  0.28238  1.0000
  C   C68       1.0  0.83898  0.47550  0.24637  1.0000
  H   H45       1.0  0.78759  0.37348  0.26955  1.0000
  H   H46       1.0  0.87425  0.36431  0.26953  1.0000
  H   H47       1.0  0.83428  0.41342  0.33475  1.0000
  H   H48       1.0  0.83810  0.46404  0.19398  1.0000
  H   H49       1.0  0.79815  0.51306  0.25927  1.0000
  O   O21       1.0  0.98467  0.73636  0.93156  1.0000
  C   C69       1.0  0.06417  0.83062  0.93844  1.0000
  C   C70       1.0  0.02004  0.77835  0.97441  1.0000
  H   H50       1.0  0.09277  0.86459  0.97307  1.0000
  H   H51       1.0  0.09696  0.79657  0.90780  1.0000
  H   H52       1.0  0.03541  0.86943  0.90780  1.0000
  H   H53       1.0  0.04875  0.73953  0.00508  1.0000
  H   H54       1.0  0.98725  0.81244  0.00501  1.0000
  O   O22       1.0  0.82662  0.54906  0.93143  1.0000
  C   C71       1.0  0.79107  0.50701  0.83064  1.0000
  C   C72       1.0  0.83514  0.55926  0.86665  1.0000
  H   H55       1.0  0.79793  0.51526  0.77826  1.0000
  H   H56       1.0  0.80206  0.44711  0.84346  1.0000
  H   H57       1.0  0.74056  0.52002  0.84356  1.0000
  H   H58       1.0  0.88567  0.54632  0.85375  1.0000
  H   H59       1.0  0.82409  0.61915  0.85383  1.0000
  O   O23       1.0  0.82653  0.54892  0.06043  1.0000
  C   C73       1.0  0.74698  0.45473  0.05355  1.0000
  C   C74       1.0  0.79109  0.50703  0.01757  1.0000
  H   H60       1.0  0.71830  0.42085  0.01892  1.0000
  H   H61       1.0  0.77570  0.41584  0.08416  1.0000
  H   H62       1.0  0.71426  0.48882  0.08421  1.0000
  H   H63       1.0  0.82382  0.47299  0.98688  1.0000
  H   H64       1.0  0.76233  0.54592  0.98701  1.0000
  H   H65       1.0  0.89658  0.52120  0.13846  1.0000
  H   H66       1.0  0.66708  0.72842  0.62531  1.0000
  H   H67       1.0  0.46526  0.76381  0.68897  1.0000
  H   H68       1.0  0.46509  0.52104  0.70727  1.0000
  O   O24       1.0  0.54311  0.54882  0.77724  1.0000
  C   C75       1.0  0.52297  0.42254  0.80782  1.0000
  C   C76       1.0  0.55898  0.47474  0.76367  1.0000
  H   H69       1.0  0.53578  0.36264  0.79685  1.0000
  H   H70       1.0  0.53582  0.43561  0.85833  1.0000
  H   H71       1.0  0.47059  0.43073  0.80092  1.0000
  H   H72       1.0  0.61137  0.46658  0.77050  1.0000
  H   H73       1.0  0.54607  0.46166  0.71317  1.0000
  H   H74       1.0  0.66690  0.55635  0.77098  1.0000
