data_functionalizedCrystal
_audit_creation_method	'MofGen! by Chris Wilmer'
_symmetry_space_group_name_H-M	'P1'
_symmetry_Int_Tables_number	1
_symmetry_cell_setting	triclinic
loop_
_symmetry_equiv_pos_as_xyz
  x,y,z
_cell_length_a	14.421503
_cell_length_b	14.519709
_cell_length_c	14.519709
_cell_angle_alpha	83.680145
_cell_angle_beta	90.010234
_cell_angle_gamma	89.988844
loop_
_atom_site_label
_atom_site_type_symbol
_atom_site_fract_x
_atom_site_fract_y
_atom_site_fract_z
O1	O	-0.076993	-1.223853	-0.120899
O2	O	0.423007	-0.723853	0.379101
O3	O	-0.077022	-0.955376	-0.135135
O4	O	0.422978	-0.455376	0.364865
O5	O	-0.076998	-1.096733	0.006221
O6	O	0.423002	-0.596733	0.506221
O7	O	-0.077016	-1.082497	-0.262256
O8	O	0.422984	-0.582497	0.237744
O9	O	0.077225	-1.096749	0.006241
O10	O	0.577225	-0.596749	0.506241
O11	O	0.077202	-0.955393	-0.135116
O12	O	0.577202	-0.455393	0.364884
O13	O	0.077230	-1.223870	-0.120879
O14	O	0.577230	-0.723870	0.379121
Cu15	Cu	0.091298	-1.089633	-0.127996
Cu16	Cu	0.591298	-0.589633	0.372004
Cu17	Cu	-0.091089	-1.089613	-0.128019
Cu18	Cu	0.408911	-0.589613	0.371981
O19	O	0.077207	-1.082513	-0.262236
O20	O	0.577207	-0.582513	0.237764
C21	C	0.000087	-0.921025	-0.134462
C22	C	0.500087	-0.421025	0.365538
C23	C	0.000076	-0.818643	-0.132474
C24	C	0.500076	-0.318643	0.367526
N25	N	-0.219370	-1.089600	-0.128029
N26	N	0.280630	-0.589600	0.371971
C27	C	0.000114	-1.096078	0.040591
C28	C	0.500114	-0.596078	0.540591
C29	C	0.000114	-1.094090	0.142972
C30	C	0.500114	-0.594090	0.642972
C31	C	-0.469029	-1.024113	-0.193260
C32	C	0.030971	-0.524113	0.306740
C33	C	-0.530831	-1.006291	-0.109831
C34	C	-0.030831	-0.506291	0.390169
C35	C	-0.408532	-1.089618	-0.128010
C36	C	0.091468	-0.589618	0.371990
C37	C	-0.530824	-1.107414	-0.211421
C38	C	-0.030824	-0.607414	0.288579
C39	C	-0.591253	-1.089632	-0.127999
C40	C	-0.091253	-0.589632	0.372001
C41	C	-0.468973	-1.071754	-0.044538
C42	C	0.031027	-0.571754	0.455462
C43	C	-0.468961	-1.172913	-0.146183
C44	C	0.031039	-0.672913	0.353817
C45	C	-0.530734	-1.155127	-0.062694
C46	C	-0.030734	-0.655127	0.437306
C47	C	-0.303271	-1.089607	-0.128017
C48	C	0.196729	-0.589607	0.371983
C49	C	-0.696512	-1.089644	-0.127982
C50	C	-0.196512	-0.589644	0.372018
N51	N	0.219579	-1.089653	-0.127979
N52	N	0.719579	-0.589653	0.372021
C53	C	0.000120	-1.258221	-0.121553
C54	C	0.500120	-0.758221	0.378447
C55	C	0.000125	-1.360602	-0.123541
C56	C	0.500125	-0.860602	0.376459
C57	C	0.000119	-0.443748	-0.125154
C58	C	0.500119	0.056252	0.374846
C59	C	0.000106	-0.548056	-0.127187
C60	C	0.500106	-0.048056	0.372813
C61	C	0.000096	-0.631192	-0.128814
C62	C	0.500096	-0.131192	0.371186
C63	C	0.000086	-0.735507	-0.130847
C64	C	0.500086	-0.235507	0.369153
C65	C	0.000093	-1.083168	-0.296605
C66	C	0.500093	-0.583168	0.203395
C67	C	0.000087	-1.085156	-0.398987
C68	C	0.500087	-0.585156	0.101013
C69	C	0.000089	-1.086770	0.517868
C70	C	0.500089	-0.586770	1.017868
C71	C	0.000096	-1.088803	0.413560
C72	C	0.500096	-0.588803	0.913560
C73	C	0.000102	-1.090430	0.330423
C74	C	0.500102	-0.590430	0.830423
C75	C	0.000108	-1.092463	0.226109
C76	C	0.500108	-0.592463	0.726109
H77	H	-0.441934	-0.968675	-0.248382
H78	H	0.058066	-0.468675	0.251618
C79	C	-0.567556	-0.911148	-0.089048
C80	C	-0.067556	-0.411148	0.410952
H81	H	-0.603777	-0.918502	-0.034084
H82	H	-0.103777	-0.418502	0.465916
H83	H	-0.604746	-0.885100	-0.139312
H84	H	-0.104746	-0.385100	0.360688
H85	H	-0.516792	-0.871146	-0.080912
H86	H	-0.016792	-0.371146	0.419088
H87	H	-0.557657	-1.210532	-0.007448
H88	H	-0.057657	-0.710532	0.492552
H89	H	-0.557976	-1.122471	-0.281968
H90	H	-0.057976	-0.622471	0.218032
C91	C	-0.432432	-1.051308	0.050781
C92	C	0.067568	-0.551308	0.550781
H93	H	-0.366559	-1.051395	0.050184
H94	H	0.133441	-0.551395	0.550184
H95	H	-0.454052	-1.097569	0.097156
H96	H	0.045948	-0.597569	0.597156
H97	H	-0.454131	-0.992330	0.063795
H98	H	0.045869	-0.492330	0.563795
C99	C	-0.432209	-1.268030	-0.167000
C100	C	0.067791	-0.768030	0.333000
H101	H	-0.453348	-1.280576	-0.226324
H102	H	0.046652	-0.780576	0.273676
H103	H	-0.454254	-1.314689	-0.121251
H104	H	0.045746	-0.814689	0.378749
H105	H	-0.366342	-1.267496	-0.166290
H106	H	0.133658	-0.767496	0.333710
