data_functionalizedCrystal
_audit_creation_method	'MofGen! by Chris Wilmer'
_symmetry_space_group_name_H-M	'P1'
_symmetry_Int_Tables_number	1
_symmetry_cell_setting	triclinic
loop_
_symmetry_equiv_pos_as_xyz
  x,y,z
_cell_length_a	13.101018
_cell_length_b	10.723024
_cell_length_c	10.723024
_cell_angle_alpha	84.467869
_cell_angle_beta	93.392007
_cell_angle_gamma	86.605939
loop_
_atom_site_label
_atom_site_type_symbol
_atom_site_fract_x
_atom_site_fract_y
_atom_site_fract_z
O1	O	0.085205	-1.664002	-0.168205
O2	O	0.585205	-1.164002	0.331795
O3	O	0.085209	-1.300850	-0.184958
O4	O	0.585209	-0.800850	0.315042
O5	O	0.085203	-1.490802	0.004995
O6	O	0.585203	-0.990802	0.504995
O7	O	0.085211	-1.474049	-0.358157
O8	O	0.585211	-0.974049	0.141843
O9	O	-0.085227	-1.477157	-0.008646
O10	O	0.414773	-0.977157	0.491354
O11	O	-0.085221	-1.287205	-0.198598
O12	O	0.414779	-0.787205	0.301402
O13	O	-0.085225	-1.650357	-0.181845
O14	O	0.414775	-1.150357	0.318155
Zn15	Zn	-0.112282	-1.466615	-0.192388
Zn16	Zn	0.387718	-0.966615	0.307612
Zn17	Zn	0.112267	-1.484592	-0.174415
Zn18	Zn	0.612267	-0.984592	0.325585
O19	O	-0.085219	-1.460405	-0.371798
O20	O	0.414781	-0.960405	0.128202
C21	C	-0.000006	-1.247528	-0.190559
C22	C	0.499994	-0.747528	0.309441
C23	C	-0.000005	-1.108974	-0.186911
C24	C	0.499995	-0.608974	0.313089
C25	C	-0.000011	-1.482761	0.044674
C26	C	0.499989	-0.982761	0.544674
C27	C	-0.000007	-1.479113	0.183229
C28	C	0.499993	-0.979113	0.683229
N29	N	-0.265531	-1.454355	-0.204653
N30	N	0.234469	-0.954355	0.295347
C31	C	-0.525442	-1.513535	-0.145449
C32	C	-0.025442	-1.013535	0.354551
C33	C	-0.474567	-1.437685	-0.221340
C34	C	0.025433	-0.937685	0.278660
C35	C	-0.358249	-1.446963	-0.212053
C36	C	0.141751	-0.946963	0.287947
C37	C	-0.641771	-1.504260	-0.154735
C38	C	-0.141771	-1.004260	0.345265
N39	N	0.265515	-1.496862	-0.162141
N40	N	0.765515	-0.996862	0.337859
C41	C	-0.000008	-1.703679	-0.176244
C42	C	0.499992	-1.203679	0.323756
C43	C	-0.000002	-1.842234	-0.179891
C44	C	0.499998	-1.342234	0.320109
C45	C	-0.000002	-1.033991	-0.293198
C46	C	0.499998	-0.533991	0.206802
C47	C	-0.000000	-0.890788	-0.289431
C48	C	0.500000	-0.390788	0.210569
C49	C	-0.000003	-1.468446	-0.411477
C50	C	0.499997	-0.968446	0.088523
C51	C	0.000000	-1.472094	-0.550031
C52	C	0.500000	-0.972094	-0.050031
C53	C	-0.000006	-1.585401	0.258211
C54	C	0.499994	-1.085401	0.758211
C55	C	-0.000003	-1.581634	0.401415
C56	C	0.499997	-1.081634	0.901415
H57	H	-0.518370	-1.365781	-0.293289
H58	H	-0.018370	-0.865781	0.206711
H59	H	-0.000006	-1.075813	-0.386985
H60	H	0.499994	-0.575813	0.113015
F61	F	-0.000002	-1.707991	0.203554
F62	F	0.499998	-1.207991	0.703554
H63	H	-0.481644	-1.585436	-0.073507
H64	H	0.018356	-1.085436	0.426493
H65	H	0.000006	-0.826356	-0.380421
H66	H	0.500006	-0.326356	0.119579
H67	H	-0.000007	-1.381098	0.385543
H68	H	0.499993	-0.881098	0.885543
H69	H	0.000002	-0.906659	-0.088895
H70	H	0.500002	-0.406659	0.411105
H71	H	0.000020	-1.067153	-0.093123
H72	H	0.500020	-0.567153	0.406877
F73	F	-0.000009	-1.700569	0.485628
F74	F	0.499991	-1.200569	0.985628
F75	F	0.000004	-1.356525	0.237887
F76	F	0.500004	-0.856525	0.737887
