data_functionalizedCrystal
_audit_creation_method	'MofGen! by Chris Wilmer'
_symmetry_space_group_name_H-M	'P1'
_symmetry_Int_Tables_number	1
_symmetry_cell_setting	triclinic
loop_
_symmetry_equiv_pos_as_xyz
  x,y,z
_cell_length_a	25.993598
_cell_length_b	25.993511
_cell_length_c	25.993459
_cell_angle_alpha	89.997532
_cell_angle_beta	59.997173
_cell_angle_gamma	59.999798
loop_
_atom_site_label
_atom_site_type_symbol
_atom_site_fract_x
_atom_site_fract_y
_atom_site_fract_z
O1	O	-0.453796	0.438482	0.806711
O2	O	-0.348446	0.363671	0.626551
O3	O	-0.453793	0.363669	0.731895
O4	O	-0.348450	0.438484	0.701367
O5	O	-0.368228	0.278104	0.731895
O6	O	-0.262882	0.278106	0.626551
O7	O	-0.368231	0.352917	0.806712
Cu8	Cu	-0.307744	0.307698	0.716631
Cu9	Cu	-0.408934	0.408889	0.716631
O10	O	-0.262885	0.352919	0.701367
C11	C	-0.255152	0.532436	0.694419
C12	C	-0.291269	0.600297	0.698789
C13	C	-0.285820	0.501189	0.693984
C14	C	-0.161991	0.439276	0.694419
C15	C	-0.098499	0.407531	0.698788
C16	C	-0.192800	0.408171	0.693984
C17	C	-0.255150	0.439274	0.694419
C18	C	-0.291264	0.407527	0.698788
C19	C	-0.192803	0.501191	0.693984
C20	C	-0.150814	0.187786	0.245440
C21	C	-0.088466	0.125871	0.214336
C22	C	-0.150812	0.187788	0.338599
C23	C	-0.088463	0.125872	0.307353
C24	C	-0.057655	0.094625	0.245440
C25	C	-0.181481	0.218891	0.307353
C26	C	-0.251744	0.281157	0.245682
C27	C	-0.286043	0.310683	0.216358
C28	C	-0.256605	0.278849	0.155011
C29	C	-0.293793	0.310859	0.123214
C30	C	-0.192864	0.217488	0.122976
C31	C	-0.158565	0.187965	0.152298
C32	C	-0.188008	0.219799	0.213651
C33	C	0.035469	-0.006064	0.152073
C34	C	0.094318	-0.069687	0.122547
C35	C	0.123834	-0.101596	0.154380
C36	C	0.187641	-0.170581	0.122372
C37	C	0.094512	-0.069887	0.215739
C38	C	0.035667	-0.006266	0.245261
C39	C	0.006146	0.025643	0.213428
C40	C	-0.251738	0.281160	0.439285
C41	C	-0.286040	0.310685	0.502910
C42	C	-0.256600	0.278852	0.534820
C43	C	-0.293785	0.310863	0.603804
C44	C	-0.192864	0.217494	0.503115
C45	C	-0.158562	0.187966	0.439492
C46	C	-0.188002	0.219802	0.407580
C47	C	-0.565875	0.094636	0.753661
C48	C	-0.628225	0.125883	0.754097
C49	C	-0.565874	0.187796	0.753661
C50	C	-0.628223	0.218901	0.754096
C51	C	-0.659034	0.187797	0.753661
C52	C	-0.535206	0.125881	0.754097
C53	C	-0.464947	-0.006052	0.746102
C54	C	-0.430649	-0.069675	0.741330
C55	C	-0.460089	-0.101583	0.738936
C56	C	-0.422903	-0.170568	0.733759
C57	C	-0.523832	-0.069874	0.741319
C58	C	-0.558129	-0.006254	0.746093
C59	C	-0.528684	0.025654	0.748482
C60	C	-0.752162	0.187557	0.746101
C61	C	-0.811013	0.216883	0.741329
C62	C	-0.840528	0.278232	0.738935
C63	C	-0.904335	0.310031	0.733758
C64	C	-0.811202	0.310266	0.741318
C65	C	-0.752356	0.280942	0.746093
C66	C	-0.722836	0.219588	0.748481
C67	C	-0.464944	0.187552	0.746101
C68	C	-0.430639	0.216873	0.741322
C69	C	-0.460078	0.278222	0.738928
C70	C	-0.422890	0.310019	0.733751
C71	C	-0.523815	0.310255	0.741308
C72	C	-0.558119	0.280936	0.746085
C73	C	-0.528681	0.219584	0.748482
O74	O	0.074777	0.363679	0.731895
O75	O	-0.074850	0.438490	0.701367
O76	O	-0.074855	0.438490	0.806711
O77	O	0.074781	0.363680	0.626551
O78	O	-0.074851	0.352923	0.806711
O79	O	-0.074847	0.352923	0.701367
O80	O	0.074780	0.278113	0.731895
Cu81	Cu	-0.000033	0.307705	0.716631
Cu82	Cu	-0.000037	0.408898	0.716631
O83	O	0.074785	0.278113	0.626551
O84	O	-0.453800	0.806682	0.731896
O85	O	-0.348456	0.626526	0.701368
O86	O	-0.453803	0.731866	0.806712
O87	O	-0.348454	0.701342	0.626552
O88	O	-0.368238	0.731866	0.806712
O89	O	-0.262891	0.626527	0.701367
O90	O	-0.368236	0.806682	0.731896
Cu91	Cu	-0.307751	0.716604	0.716632
Cu92	Cu	-0.408941	0.716604	0.716632
O93	O	-0.262889	0.701342	0.626551
O94	O	0.358150	-0.373488	0.080324
O95	O	0.208528	-0.193331	0.155132
O96	O	0.208519	-0.298668	0.155145
O97	O	0.358159	-0.268150	0.080311
O98	O	0.208517	-0.298670	0.069581
O99	O	0.208526	-0.193333	0.069568
O100	O	0.358148	-0.373489	-0.005240
Cu101	Cu	0.283337	-0.283411	0.024351
Cu102	Cu	0.283339	-0.283409	0.125541
O103	O	0.358157	-0.268152	-0.005253
O104	O	-0.368244	0.352913	-0.005242
O105	O	-0.262898	0.278097	0.069567
O106	O	-0.368248	0.278102	0.069579
O107	O	-0.262894	0.352907	-0.005254
O108	O	-0.453810	0.363669	0.155143
O109	O	-0.348460	0.363664	0.155131
O110	O	-0.453806	0.438479	0.080322
Cu111	Cu	-0.408945	0.408884	0.125539
Cu112	Cu	-0.307759	0.307692	0.024350
O113	O	-0.348456	0.438474	0.080309
C114	C	-0.554702	0.532428	0.993966
C115	C	-0.618195	0.600289	1.025713
C116	C	-0.523893	0.501182	1.025071
C117	C	-0.461537	0.439269	0.900804
C118	C	-0.425419	0.407524	0.832941
C119	C	-0.430870	0.408165	0.932051
C120	C	-0.461542	0.439268	0.993967
C121	C	-0.425429	0.407521	1.025714
C122	C	-0.523888	0.501184	0.932050
C123	C	-0.255163	0.439276	0.993968
C124	C	-0.291278	0.407529	1.025716
C125	C	-0.285834	0.501190	1.025071
C126	C	-0.162000	0.439277	0.900804
C127	C	-0.098505	0.407531	0.832941
C128	C	-0.192812	0.501192	0.932049
C129	C	-0.255165	0.532437	0.993965
C130	C	-0.291282	0.600298	1.025711
C131	C	-0.192811	0.408172	0.932052
C132	C	-0.461541	0.738807	0.993965
C133	C	-0.425435	0.734453	1.025714
C134	C	-0.523878	0.739220	1.025064
C135	C	-0.461536	0.738801	0.900802
C136	C	-0.425424	0.734441	0.832941
C137	C	-0.523873	0.739215	0.932043
C138	C	-0.554679	0.738771	0.993956
C139	C	-0.618156	0.734379	1.025697
C140	C	-0.430876	0.739250	0.932051
C141	C	0.434151	0.094655	0.245426
C142	C	0.464818	0.125903	0.214322
C143	C	0.340984	0.187812	0.338590
C144	C	0.371793	0.218919	0.307344
C145	C	0.434145	0.187817	0.245428
C146	C	0.371798	0.125898	0.307343
C147	C	0.441474	-0.006035	0.245667
C148	C	0.475574	-0.069658	0.216341
C149	C	0.539319	-0.101565	0.154990
C150	C	0.576298	-0.170549	0.123191
C151	C	0.568969	-0.069854	0.122956
C152	C	0.534869	-0.006234	0.152280
C153	C	0.471124	0.025673	0.213635
C154	C	0.535076	0.187581	0.152057
C155	C	0.569372	0.216908	0.122530
C156	C	0.539929	0.278257	0.154365
C157	C	0.577114	0.310058	0.122355
C158	C	0.476184	0.310289	0.215726
C159	C	0.441887	0.280964	0.245250
C160	C	0.471336	0.219610	0.213415
C161	C	0.247855	0.187565	0.439279
C162	C	0.189006	0.216885	0.502906
C163	C	0.159487	0.278234	0.534817
C164	C	0.095676	0.310029	0.603803
C165	C	0.188810	0.310268	0.503111
C166	C	0.247659	0.280951	0.439487
C167	C	0.277179	0.219600	0.407573
O168	O	-0.368246	0.806682	1.069560
O169	O	-0.262902	0.626527	0.994751
O170	O	-0.368243	0.731867	0.994748
O171	O	-0.262905	0.701343	1.069563
O172	O	-0.453812	0.731868	1.080317
O173	O	-0.348471	0.626528	1.080320
O174	O	-0.453815	0.806684	1.155130
Cu175	Cu	-0.408956	0.716606	1.125538
Cu176	Cu	-0.307761	0.716604	1.024343
O177	O	-0.348474	0.701344	1.155132
C178	C	-0.057631	0.679585	0.245430
C179	C	-0.088438	0.679150	0.214324
C180	C	-0.150795	0.679583	0.338591
C181	C	-0.181461	0.679148	0.307343
C182	C	-0.150789	0.679584	0.245427
C183	C	-0.088445	0.679149	0.307345
C184	C	0.035495	0.687146	0.245674
C185	C	0.094347	0.691918	0.216349
C186	C	0.123866	0.694313	0.154999
C187	C	0.187675	0.699491	0.123202
C188	C	0.094544	0.691931	0.122963
C189	C	0.035697	0.687155	0.152285
C190	C	0.006173	0.684766	0.213640
C191	C	-0.158100	0.687146	0.152054
C192	C	-0.192194	0.691917	0.122526
C193	C	-0.255938	0.694310	0.154359
C194	C	-0.292909	0.699487	0.122347
C195	C	-0.285593	0.691926	0.215720
C196	C	-0.251499	0.687151	0.245245
C197	C	-0.187755	0.684764	0.213413
C198	C	-0.158120	0.687141	0.439281
C199	C	-0.192225	0.691919	0.502909
C200	C	-0.255969	0.694312	0.534818
C201	C	-0.292947	0.699487	0.603804
C202	C	-0.285617	0.691932	0.503110
C203	C	-0.251517	0.687156	0.439486
C204	C	-0.187768	0.684761	0.407574
H205	H	-0.062680	0.100789	0.332442
H206	H	-0.610029	0.019562	0.748035
F207	F	-0.159096	0.341675	0.899268
H208	H	-0.835243	0.360224	0.739370
F209	F	-0.159107	0.533980	0.899259
H210	H	0.271535	0.307037	0.413674
F211	F	0.004460	0.027480	0.310561
F212	F	-0.159103	0.533982	0.693073
F213	F	-0.557581	0.740132	1.091557
F214	F	-0.090732	0.122663	0.405751
F215	F	-0.351416	0.533980	1.091564
F216	F	-0.353873	0.375984	0.250451
F217	F	-0.161536	0.183609	0.057679
H218	H	0.452223	0.360241	0.241649
H219	H	-0.380695	0.357295	0.906961
F220	F	-0.160667	0.694452	0.536649
H221	H	-0.062681	0.100788	0.163463
F222	F	-0.362804	0.182777	0.738784
H223	H	-0.549616	0.739854	0.906935
F224	F	-0.090728	0.122664	0.118206
F225	F	0.566423	0.027514	0.118189
F226	F	-0.283074	0.684625	0.405742
F227	F	0.157802	0.182789	0.536644
F228	F	-0.557588	0.533974	0.899259
F229	F	0.125553	0.694447	0.250443
H230	H	-0.728482	0.307026	0.748035
F231	F	0.279262	0.122273	0.405313
F232	F	-0.365305	0.740176	0.899263
H233	H	-0.062652	0.678439	0.332427
F234	F	0.338090	0.285409	0.340137
H235	H	0.514992	0.100817	0.163449
H236	H	-0.440972	0.137598	0.748056
H237	H	-0.275711	0.307087	0.413304
H238	H	0.620879	-0.095843	0.072997
F239	F	-0.720750	0.122260	0.748647
F240	F	0.338098	0.093105	0.340132
F241	F	-0.090273	0.684592	0.405321
H242	H	-0.231650	0.269765	0.332435
H243	H	0.389978	0.307050	0.295206
H244	H	-0.549683	0.526270	1.075944
H245	H	-0.834884	0.190795	0.739391
F246	F	0.004495	0.684613	0.118190
F247	F	0.004054	0.027894	0.118189
F248	F	0.373628	0.027921	0.310966
H249	H	-0.335985	0.526273	0.693274
H250	H	0.451427	-0.095470	0.242426
H251	H	0.559057	0.137624	0.126130
F252	F	-0.090256	0.684601	0.118170
H253	H	-0.610014	0.307019	0.748019
F254	F	0.004078	0.684598	0.310972
F255	F	0.637209	0.182815	0.057227
H256	H	0.164774	0.360224	0.529100
H257	H	-0.231636	0.678450	0.332432
H258	H	-0.062638	0.678438	0.163446
H259	H	0.118188	-0.095497	0.072588
F260	F	-0.555142	0.375549	0.738749
F261	F	0.125968	0.694479	0.057663
F262	F	-0.160627	0.694452	0.057223
F263	F	-0.353438	0.694470	0.249597
H264	H	0.118555	-0.095877	0.241654
H265	H	-0.275645	0.685210	0.295205
H266	H	-0.654000	0.269769	0.754787
F267	F	-0.159099	0.341681	0.693075
F268	F	-0.353871	0.375985	0.536648
F269	F	-0.283079	0.315042	0.310978
F270	F	-0.469633	0.093093	0.755017
H271	H	-0.168894	0.191572	0.529102
F272	F	-0.661936	0.093098	0.755022
H273	H	-0.378753	-0.095486	0.739391
F274	F	-0.433607	0.027906	0.748646
F275	F	-0.555163	-0.103841	0.738772
F276	F	-0.353468	0.694485	0.537075
