data_functionalizedCrystal
_audit_creation_method	'MofGen! by Chris Wilmer'
_symmetry_space_group_name_H-M	'P1'
_symmetry_Int_Tables_number	1
_symmetry_cell_setting	triclinic
loop_
_symmetry_equiv_pos_as_xyz
  x,y,z
_cell_length_a	19.188930
_cell_length_b	10.489741
_cell_length_c	18.266242
_cell_angle_alpha	89.998636
_cell_angle_beta	90.020224
_cell_angle_gamma	96.158023
loop_
_atom_site_label
_atom_site_type_symbol
_atom_site_fract_x
_atom_site_fract_y
_atom_site_fract_z
O1	O	0.927214	-0.159229	0.061116
O2	O	0.724046	-0.180665	0.061066
O3	O	0.830253	0.015755	0.061088
O4	O	0.821007	-0.355648	0.061094
O5	O	0.830239	0.015748	-0.060674
O6	O	0.724032	-0.180671	-0.060696
O7	O	0.927200	-0.159235	-0.060646
Zn8	Zn	0.825614	-0.169954	-0.080003
Zn9	Zn	0.825632	-0.169946	0.080423
O10	O	0.820993	-0.355654	-0.060668
C11	C	0.698024	-0.179974	0.000179
C12	C	0.620505	-0.177890	0.000159
N13	N	0.825607	-0.169959	-0.189490
C14	C	0.829548	0.063267	0.000207
C15	C	0.827459	0.204850	0.000208
C16	C	0.576353	-0.293142	0.000173
C17	C	0.503516	-0.291184	0.000181
C18	C	0.474835	-0.173968	0.000190
C19	C	0.518996	-0.058700	0.000172
C20	C	0.591831	-0.060661	0.000157
N21	N	0.366259	-0.084368	0.041659
N22	N	0.297068	-0.082513	0.041675
C23	C	0.255386	-0.168052	0.000235
N24	N	0.285508	-0.255536	-0.041213
N25	N	0.354706	-0.257395	-0.041226
C26	C	0.395858	-0.171829	0.000206
C27	C	0.132256	-0.281190	0.000256
C28	C	0.059418	-0.279227	0.000259
C29	C	0.074899	-0.046740	0.000258
C30	C	0.147736	-0.048706	0.000247
C31	C	0.176409	-0.165934	0.000250
C32	C	0.953223	-0.159926	0.000243
C33	C	1.030741	-0.162010	0.000267
C34	C	0.821699	-0.403167	0.000215
C35	C	0.823788	-0.544750	0.000219
C36	C	0.759882	0.271479	0.000197
C37	C	0.791798	0.364312	-0.059830
C38	C	0.791827	0.364294	0.060217
C39	C	0.859402	0.295819	-0.059869
C40	C	0.859422	0.295790	0.060233
C41	C	0.891387	0.388597	0.000191
C42	C	0.868376	-0.247085	-0.771754
C43	C	0.868369	-0.247098	-0.695109
C44	C	0.825639	-0.169933	-0.656803
C45	C	0.782899	-0.092773	-0.695147
C46	C	0.782902	-0.092772	-0.771791
N47	N	0.823199	-0.058207	-0.536468
N48	N	0.823200	-0.058211	-0.463660
C49	C	0.825625	-0.169933	-0.425880
N50	N	0.828063	-0.281651	-0.463660
N51	N	0.828066	-0.281646	-0.536474
C52	C	0.825630	-0.169926	-0.573696
C53	C	0.868351	-0.247108	-0.304438
C54	C	0.868338	-0.247124	-0.227791
C55	C	0.782873	-0.092787	-0.227831
C56	C	0.782881	-0.092783	-0.304476
C57	C	0.825624	-0.169942	-0.342775
N58	N	0.825645	-0.169931	0.189910
H59	H	0.599694	-0.388598	0.000176
H60	H	0.763199	0.394682	-0.110593
O61	O	0.909779	-0.322189	-0.657826
C62	C	0.914689	-0.494320	-0.571245
C63	C	0.867709	-0.409394	-0.613432
H64	H	0.880696	-0.564827	-0.535331
H65	H	0.945224	-0.549563	-0.611749
H66	H	0.952941	-0.431367	-0.535382
H67	H	0.829417	-0.472252	-0.649296
H68	H	0.837223	-0.354141	-0.572888
H69	H	0.887964	0.265623	-0.110673
O70	O	0.160035	-0.395137	0.000346
C71	C	0.169160	-0.594407	0.063441
C72	C	0.137643	-0.465423	0.063423
H73	H	0.151081	-0.651258	0.114441
H74	H	0.150981	-0.651430	0.012519
H75	H	0.228801	-0.575976	0.063397
H76	H	0.078001	-0.483737	0.063492
H77	H	0.155878	-0.408441	0.114340
O78	O	0.491104	0.055131	0.000313
C79	C	0.417856	0.192238	0.063392
C80	C	0.449408	0.063288	0.063336
H81	H	0.384126	0.198863	0.114332
H82	H	0.461899	0.274331	0.063427
H83	H	0.384144	0.198945	0.012420
H84	H	0.483113	0.056455	0.114299
H85	H	0.405331	-0.018744	0.063262
H86	H	0.946998	0.439264	0.000172
O87	O	0.046931	0.067014	0.000301
C88	C	-0.058414	0.173071	0.000280
C89	C	-0.026830	0.044153	0.000251
H90	H	-0.118055	0.154633	0.000225
H91	H	-0.040302	0.230026	0.051247
H92	H	-0.040261	0.230006	-0.050667
H93	H	-0.044969	-0.012886	0.051164
H94	H	-0.044940	-0.012704	-0.050749
H95	H	0.183685	0.045145	0.000240
O96	O	0.909883	-0.322182	-0.341533
C97	C	0.994684	-0.475201	-0.333406
C98	C	0.947670	-0.390266	-0.291308
H99	H	1.025257	-0.530249	-0.292818
H100	H	0.960736	-0.545882	-0.369286
H101	H	1.032901	-0.412272	-0.369290
H102	H	0.909445	-0.453094	-0.255385
H103	H	0.981661	-0.319577	-0.255475
H104	H	0.748106	-0.029947	-0.663953
O105	O	0.893410	0.259541	0.120867
C106	C	0.896248	0.252974	0.252691
C107	C	0.857687	0.294072	0.184077
H108	H	0.867390	0.280899	0.303814
H109	H	0.897936	0.144677	0.251865
H110	H	0.952002	0.303003	0.253187
H111	H	0.801916	0.244133	0.183537
H112	H	0.856055	0.402381	0.184930
H113	H	0.704321	0.220586	0.000122
O114	O	0.741477	-0.017750	-0.341801
C115	C	0.736590	0.154504	-0.428305
C116	C	0.783565	0.069599	-0.386094
H117	H	0.770600	0.225164	-0.464115
H118	H	0.698361	0.091668	-0.464253
H119	H	0.706030	0.209596	-0.387751
H120	H	0.814170	0.014492	-0.426595
H121	H	0.821749	0.132503	-0.350135
H122	H	0.467561	-0.385040	0.000190
H123	H	0.763232	0.394621	0.110970
H124	H	0.748104	-0.029942	-0.803003
O125	O	0.909908	-0.322165	-0.808843
C126	C	0.994706	-0.475187	-0.800711
C127	C	0.947696	-0.390240	-0.758616
H128	H	1.025282	-0.530227	-0.760121
H129	H	0.960755	-0.545874	-0.836584
H130	H	1.032922	-0.412266	-0.836601
H131	H	0.909473	-0.453058	-0.722686
H132	H	0.981691	-0.319545	-0.722789
H133	H	0.627781	0.033194	0.000146
H134	H	0.023470	-0.373084	0.000266
O135	O	0.741255	-0.017977	-0.190668
C136	C	0.623501	0.031334	-0.167320
C137	C	0.670557	-0.053493	-0.209441
H138	H	0.566333	0.002668	-0.182495
H139	H	0.630769	0.018074	-0.105945
H140	H	0.638576	0.136134	-0.182377
H141	H	0.655512	-0.158324	-0.194446
H142	H	0.663283	-0.040124	-0.270806
H143	H	0.903134	-0.309960	-0.196580
