data_functionalizedCrystal
_audit_creation_method	'MofGen! by Chris Wilmer'
_symmetry_space_group_name_H-M	'P1'
_symmetry_Int_Tables_number	1
_symmetry_cell_setting	triclinic
loop_
_symmetry_equiv_pos_as_xyz
  x,y,z
_cell_length_a	12.759401
_cell_length_b	21.295417
_cell_length_c	12.759393
_cell_angle_alpha	89.961877
_cell_angle_beta	89.981433
_cell_angle_gamma	90.028746
loop_
_atom_site_label
_atom_site_type_symbol
_atom_site_fract_x
_atom_site_fract_y
_atom_site_fract_z
Zn1	Zn	1.606146	-0.250588	-0.593935
Zn2	Zn	2.106146	0.249412	-0.093935
Zn3	Zn	1.605994	-0.355872	-0.418235
Zn4	Zn	2.105994	0.144128	0.081765
Zn5	Zn	1.430448	-0.250619	-0.418275
Zn6	Zn	1.930448	0.249381	0.081725
Zn7	Zn	1.430390	-0.355822	-0.593877
Zn8	Zn	1.930390	0.144178	-0.093877
O9	O	1.518245	-0.303225	-0.506081
O10	O	2.018245	0.196775	-0.006081
O11	O	1.753147	-0.264563	-0.570637
O12	O	2.253147	0.235437	-0.070637
O13	O	1.582668	-0.341944	-0.271219
O14	O	2.082668	0.158056	0.228781
O15	O	1.453842	-0.162526	-0.441617
O16	O	1.953842	0.337474	0.058383
O17	O	1.753035	-0.341914	-0.441551
O18	O	2.253035	0.158086	0.058449
O19	O	1.582927	-0.162503	-0.570675
O20	O	2.082927	0.337497	-0.070675
O21	O	1.453695	-0.264615	-0.271248
O22	O	1.953695	0.235385	0.228752
O23	O	1.283419	-0.264566	-0.441560
O24	O	1.783419	0.235434	0.058440
O25	O	1.453744	-0.341828	-0.740906
O26	O	1.953744	0.158172	-0.240906
O27	O	1.283377	-0.341858	-0.570574
O28	O	1.783377	0.158142	-0.070574
O29	O	1.582871	-0.264514	-0.740949
O30	O	2.082871	0.235486	-0.240949
O31	O	1.582612	-0.443955	-0.441494
O32	O	2.082612	0.056045	0.058506
O33	O	1.453597	-0.443918	-0.570536
O34	O	1.953597	0.056082	-0.070536
C35	C	1.245277	-0.303210	-0.506066
C36	C	1.745277	0.196790	-0.006066
C37	C	1.128501	-0.303219	-0.506085
C38	C	1.628501	0.196781	-0.006085
C39	C	1.073690	-0.263018	-0.573404
C40	C	1.573690	0.236982	-0.073404
C41	C	0.963966	-0.263030	-0.573410
C42	C	1.463966	0.236970	-0.073410
C43	C	0.963873	-0.343450	-0.438776
C44	C	1.463873	0.156550	0.061224
C45	C	1.073595	-0.343434	-0.438765
C46	C	1.573595	0.156566	0.061235
C47	C	1.073742	-0.216591	-0.651137
C48	C	1.573742	0.283409	-0.151137
C49	C	0.964018	-0.216603	-0.651144
C50	C	1.464018	0.283397	-0.151144
C51	C	1.518111	-0.466777	-0.506027
C52	C	2.018111	0.033223	-0.006027
C53	C	1.518150	-0.536745	-0.506040
C54	C	2.018150	-0.036745	-0.006040
C55	C	1.585325	-0.569543	-0.573288
C56	C	2.085325	-0.069543	-0.073288
C57	C	1.585362	-0.635285	-0.573314
C58	C	2.085362	-0.135285	-0.073314
C59	C	1.518235	-0.668227	-0.506073
C60	C	2.018235	-0.168227	-0.006073
C61	C	1.451046	-0.635422	-0.438820
C62	C	1.951046	-0.135422	0.061180
C63	C	1.451003	-0.569681	-0.438803
C64	C	1.951003	-0.069681	0.061197
N65	N	1.510296	-0.771497	-0.414126
N66	N	2.010296	-0.271497	0.085874
N67	N	1.510342	-0.833948	-0.414145
N68	N	2.010342	-0.333948	0.085855
C69	C	1.518357	-0.866302	-0.506120
C70	C	2.018357	-0.366302	-0.006120
N71	N	1.526345	-0.833846	-0.598078
N72	N	2.026345	-0.333846	-0.098078
N73	N	1.526303	-0.771388	-0.598058
N74	N	2.026303	-0.271388	-0.098058
C75	C	1.518273	-0.739513	-0.506084
C76	C	2.018273	-0.239513	-0.006084
C77	C	1.585577	-0.970385	-0.573402
C78	C	2.085577	-0.470385	-0.073402
C79	C	1.585607	-1.036129	-0.573430
C80	C	2.085607	-0.536129	-0.073430
C81	C	1.451296	-1.036265	-0.438927
C82	C	1.951296	-0.536265	0.061073
C83	C	1.451260	-0.970522	-0.438908
C84	C	1.951260	-0.470522	0.061092
C85	C	1.518407	-0.937586	-0.506145
C86	C	2.018407	-0.437586	-0.006145
C87	C	1.792278	-0.303241	-0.506096
C88	C	2.292278	0.196759	-0.006096
C89	C	1.909054	-0.303247	-0.506102
C90	C	2.409054	0.196753	-0.006102
C91	C	1.518318	-0.303162	-0.780114
C92	C	2.018318	0.196838	-0.280114
C93	C	1.518350	-0.303135	-0.896891
C94	C	2.018350	0.196865	-0.396891
C95	C	1.518408	-0.139035	-0.506157
C96	C	2.018408	0.360965	-0.006157
C97	C	1.518477	-0.069067	-0.506189
C98	C	2.018477	0.430933	-0.006189
C99	C	1.585595	-0.262873	-0.951777
C100	C	2.085595	0.237127	-0.451777
C101	C	1.585620	-0.262850	-1.061501
C102	C	2.085620	0.237150	-0.561501
C103	C	1.451151	-0.343356	-1.061443
C104	C	1.951151	0.156644	-0.561443
C105	C	1.451122	-0.343375	-0.951721
C106	C	1.951122	0.156625	-0.451721
C107	C	1.663233	-0.216396	-0.951811
C108	C	2.163233	0.283604	-0.451811
C109	C	1.663258	-0.216373	-1.061535
C110	C	2.163258	0.283627	-0.561535
C111	C	1.518232	-0.303243	-0.233113
C112	C	2.018232	0.196757	0.266887
C113	C	1.518404	-0.303093	-0.116337
C114	C	2.018404	0.196907	0.383663
H115	H	0.919156	-0.376192	-0.383966
H116	H	1.419156	0.123808	0.116034
H117	H	1.118218	-0.376164	-0.383937
H118	H	1.618218	0.123836	0.116063
H119	H	1.396414	-0.376117	-1.106099
H120	H	1.896414	0.123883	-0.606099
Br121	Br	1.359825	-0.525166	-0.347534
Br122	Br	1.859825	-0.025166	0.152466
H123	H	0.934267	-0.229721	-0.732477
H124	H	1.434267	0.270279	-0.232477
Br125	Br	1.676541	-0.679806	-0.664580
Br126	Br	2.176541	-0.179806	-0.164580
Br127	Br	1.123402	-0.135300	-0.615070
Br128	Br	1.623402	0.364700	-0.115070
Br129	Br	0.907302	-0.139385	-0.602818
Br130	Br	1.407302	0.360615	-0.102818
Br131	Br	1.614597	-0.139211	-1.118311
Br132	Br	2.114597	0.360789	-0.618311
Br133	Br	1.792009	-0.245524	-0.895066
Br134	Br	2.292009	0.254476	-0.395066
Br135	Br	1.359933	-0.680127	-0.347574
Br136	Br	1.859933	-0.180127	0.152426
H137	H	1.639997	-0.542728	-0.628038
H138	H	2.139997	-0.042728	-0.128038
H139	H	1.641486	-0.167645	-0.922065
H140	H	2.141486	0.332355	-0.422065
H141	H	1.107800	-0.234105	-0.728372
H142	H	1.607800	0.265895	-0.228372
Br143	Br	1.676699	-0.925683	-0.664651
Br144	Br	2.176699	-0.425683	-0.164651
Br145	Br	1.798870	-0.238125	-1.111174
Br146	Br	2.298870	0.261875	-0.611174
H147	H	1.640309	-1.062832	-0.628196
H148	H	2.140309	-0.562832	-0.128196
H149	H	1.396632	-1.063086	-0.384184
H150	H	1.896632	-0.563086	0.115816
Br151	Br	1.360085	-0.926008	-0.347640
Br152	Br	1.860085	-0.426008	0.152360
H153	H	1.396360	-0.376158	-0.907037
H154	H	1.896360	0.123842	-0.407037
