data_functionalizedCrystal
_audit_creation_method	'MofGen! by Chris Wilmer'
_symmetry_space_group_name_H-M	'P1'
_symmetry_Int_Tables_number	1
_symmetry_cell_setting	triclinic
loop_
_symmetry_equiv_pos_as_xyz
  x,y,z
_cell_length_a	10.723024
_cell_length_b	19.188928
_cell_length_c	9.198806
_cell_angle_alpha	89.985825
_cell_angle_beta	90.000000
_cell_angle_gamma	96.194159
loop_
_atom_site_label
_atom_site_type_symbol
_atom_site_fract_x
_atom_site_fract_y
_atom_site_fract_z
O1	O	1.655146	-0.097926	0.120909
O2	O	1.291799	-0.107299	0.120917
O3	O	1.483960	-0.001025	0.120876
O4	O	1.462986	-0.204200	0.120950
O5	O	1.483959	-0.001017	-0.120909
O6	O	1.291799	-0.107291	-0.120868
O7	O	1.655146	-0.097918	-0.120876
Cu8	Cu	1.473472	-0.102603	-0.142949
Cu9	Cu	1.473473	-0.102613	0.142990
O10	O	1.462985	-0.204192	-0.120835
C11	C	1.245314	-0.106613	0.000025
C12	C	1.106802	-0.104572	0.000026
C13	C	0.916361	-0.041179	0.000006
C14	C	1.059521	-0.043287	0.000004
C15	C	1.483281	0.024995	-0.000023
C16	C	1.481243	0.102512	-0.000042
C17	C	1.593997	0.146704	-0.000054
C18	C	1.592082	0.219540	-0.000037
C19	C	1.477409	0.248182	-0.000036
C20	C	1.364641	0.203981	-0.000015
C21	C	1.366558	0.131146	-0.000018
N22	N	1.389755	0.356759	-0.082328
N23	N	1.387942	0.425950	-0.082328
C24	C	1.471625	0.467628	-0.000025
N25	N	1.557209	0.437504	0.082261
N26	N	1.559027	0.368307	0.082255
C27	C	1.475317	0.327158	-0.000032
C28	C	1.582311	0.590798	-0.000017
C29	C	1.580392	0.663635	0.000010
C30	C	1.352947	0.648074	0.000017
C31	C	1.354869	0.575238	0.000005
C32	C	1.469554	0.546605	-0.000019
C33	C	1.701631	-0.098604	0.000020
C34	C	1.840143	-0.100645	0.000028
C35	C	1.463668	0.769789	0.000046
C36	C	1.465717	0.692272	0.000013
N37	N	1.473474	-0.102615	0.344104
N38	N	1.473481	-0.102596	-0.344063
C39	C	1.554333	-0.057894	0.416284
C40	C	1.554337	-0.057884	0.583696
H41	H	0.875629	0.011292	-0.000035
H42	H	1.675694	0.567483	-0.000029
H43	H	1.125011	0.007620	-0.000006
H44	H	1.683903	0.255527	-0.000042
H45	H	1.274738	0.095165	-0.000008
H46	H	1.672213	0.699615	0.000007
N47	N	1.024646	-0.168435	0.000030
N48	N	0.948610	-0.181481	-0.101887
H49	H	0.890578	-0.226585	-0.101888
N50	N	0.891207	-0.166479	0.000066
N51	N	0.819623	-0.222387	0.000092
H52	H	0.855682	-0.268886	0.000120
H53	H	1.263053	0.539257	0.000007
N54	N	1.235819	0.677333	0.000034
N55	N	1.234120	0.742364	0.000045
H56	H	1.151396	0.763033	0.000063
H57	H	1.687382	0.123395	-0.000068
N58	N	1.247515	0.233246	-0.000002
N59	N	1.245817	0.298277	-0.000000
H60	H	1.163094	0.318946	0.000017
H61	H	1.623561	-0.019617	0.354143
H62	H	1.623559	-0.019593	0.645768
N63	N	1.386610	-0.150622	0.578090
N64	N	1.309335	-0.128050	0.493118
H65	H	1.247979	-0.161967	0.438129
N66	N	1.386648	-0.150650	0.422047
N67	N	1.426097	-0.194141	0.507035
H68	H	1.364775	-0.228068	0.562080
