data_functionalizedCrystal
_audit_creation_method	'MofGen! by Chris Wilmer'
_symmetry_space_group_name_H-M	'P1'
_symmetry_Int_Tables_number	1
_symmetry_cell_setting	triclinic
loop_
_symmetry_equiv_pos_as_xyz
  x,y,z
_cell_length_a	8.559649
_cell_length_b	15.944551
_cell_length_c	7.681481
_cell_angle_alpha	84.256492
_cell_angle_beta	94.913240
_cell_angle_gamma	76.638701
loop_
_atom_site_label
_atom_site_type_symbol
_atom_site_fract_x
_atom_site_fract_y
_atom_site_fract_z
O1	O	2.105021	-0.019570	-0.146399
O2	O	1.639821	0.023810	-0.146411
O3	O	1.885126	-0.120976	-0.146389
O4	O	1.859716	0.125215	-0.146421
O5	O	1.915319	-0.138833	0.146471
O6	O	1.670014	0.005953	0.146450
O7	O	2.135214	-0.037427	0.146461
Zn8	Zn	1.907408	-0.018572	0.192953
Zn9	Zn	1.867627	0.004955	-0.192903
O10	O	1.889909	0.107359	0.146439
C11	C	1.595387	0.018169	0.000018
C12	C	1.418008	0.027954	0.000014
C13	C	1.899168	-0.161130	0.000042
C14	C	1.896006	-0.254172	0.000042
C15	C	1.736394	-0.458726	0.000014
C16	C	1.825398	-0.533331	0.144414
C17	C	1.890284	-0.424528	0.000029
C18	C	1.795667	-0.515712	-0.144323
C19	C	1.884744	-0.589082	0.000008
C20	C	1.979342	-0.497915	0.144548
C21	C	1.949576	-0.480280	-0.144319
C22	C	2.038696	-0.554877	0.000116
C23	C	1.893471	-0.329732	0.000042
C24	C	1.881571	-0.683878	0.000007
C25	C	2.179647	-0.031786	0.000028
C26	C	2.357025	-0.041570	0.000021
C27	C	1.875866	0.147513	0.000005
C28	C	1.879027	0.240556	-0.000008
N29	N	1.934569	-0.034630	0.456290
N30	N	1.840479	0.021005	-0.456240
H31	H	1.440515	-0.108579	0.000021
N32	N	1.692766	-0.526896	-0.306035
H33	H	1.692237	-0.590202	-0.305441
H34	H	1.578666	-0.491323	-0.305812
H35	H	2.030633	-0.091415	0.531504
H36	H	1.334507	0.094969	-0.000004
N37	N	2.208040	-0.609744	0.000205
H38	H	2.286836	-0.571372	0.001289
H39	H	2.236072	-0.654283	0.108264
N40	N	1.567217	-0.403696	0.000178
H41	H	1.520551	-0.422993	0.109356
H42	H	1.570549	-0.340739	-0.001007
H43	H	1.744432	0.077792	0.468555
H44	H	1.772895	-0.556682	0.266489
N45	N	2.082185	-0.486877	0.306432
H46	H	2.083643	-0.423674	0.305469
H47	H	2.035671	-0.506731	0.415272
N48	N	2.019062	-0.449315	-0.306021
H49	H	1.949589	-0.455212	-0.415043
H50	H	2.021653	-0.386409	-0.304038
