data_functionalizedCrystal
_audit_creation_method	'MofGen! by Chris Wilmer'
_symmetry_space_group_name_H-M	'P1'
_symmetry_Int_Tables_number	1
_symmetry_cell_setting	triclinic
loop_
_symmetry_equiv_pos_as_xyz
  x,y,z
_cell_length_a	15.944551
_cell_length_b	27.732048
_cell_length_c	15.021413
_cell_angle_alpha	89.999048
_cell_angle_beta	89.997174
_cell_angle_gamma	83.070697
loop_
_atom_site_label
_atom_site_type_symbol
_atom_site_fract_x
_atom_site_fract_y
_atom_site_fract_z
O1	O	1.113714	0.062334	-0.073949
O2	O	1.613714	0.562334	0.426051
O3	O	0.869064	0.070020	-0.073973
O4	O	1.369064	0.570020	0.426027
O5	O	0.998987	-0.004187	-0.073943
O6	O	1.498987	0.495813	0.426057
O7	O	0.983790	0.136541	-0.073979
O8	O	1.483790	0.636541	0.426021
O9	O	0.998966	-0.004176	0.074121
O10	O	1.498966	0.495824	0.574121
O11	O	0.869043	0.070030	0.074092
O12	O	1.369043	0.570030	0.574092
O13	O	1.113693	0.062345	0.074115
O14	O	1.613693	0.562345	0.574115
Zn15	Zn	0.991365	0.066189	0.097612
Zn16	Zn	1.491365	0.566189	0.597612
Zn17	Zn	0.991392	0.066175	-0.097469
Zn18	Zn	1.491392	0.566175	0.402531
O19	O	0.983770	0.136551	0.074086
O20	O	1.483770	0.636551	0.574086
C21	C	0.837763	0.069706	0.000057
C22	C	1.337763	0.569706	0.500057
C23	C	0.744530	0.068749	0.000049
C24	C	1.244530	0.568749	0.500049
C25	C	0.530305	0.020466	0.000078
C26	C	1.030305	0.520466	0.500078
C27	C	0.469001	0.042882	-0.072931
C28	C	0.969001	0.542882	0.427069
C29	C	0.573827	0.067019	0.000060
C30	C	1.073827	0.567019	0.500060
C31	C	0.469003	0.042904	0.073049
C32	C	0.969003	0.542904	0.573049
C33	C	0.408936	0.065344	0.000074
C34	C	0.908936	0.565344	0.500074
C35	C	0.513752	0.089448	-0.073010
C36	C	1.013752	0.589448	0.426990
C37	C	0.513760	0.089463	0.073036
C38	C	1.013760	0.589463	0.573036
C39	C	0.452474	0.111912	0.000009
C40	C	0.952474	0.611912	0.500009
C41	C	0.668816	0.067983	0.000051
C42	C	1.168816	0.567983	0.500051
C43	C	0.313947	0.064384	0.000077
C44	C	0.813947	0.564384	0.500077
C45	C	0.998658	-0.022190	0.000091
C46	C	1.498658	0.477810	0.500091
C47	C	0.997697	-0.075849	0.000099
C48	C	1.497697	0.424151	0.500099
C49	C	1.068426	-0.414358	0.000060
C50	C	1.568426	0.085642	0.500060
C51	C	1.064862	-0.616033	0.000047
C52	C	1.564862	-0.116033	0.500047
O53	O	1.129539	-0.647008	0.000014
O54	O	1.629539	-0.147008	0.500014
N55	N	0.987823	-0.635490	0.000040
N56	N	1.487823	-0.135490	0.500040
C57	C	0.911669	-0.604525	0.000031
C58	C	1.411669	-0.104525	0.500031
O59	O	0.846061	-0.625703	0.000016
O60	O	1.346061	-0.125703	0.500016
C61	C	0.915234	-0.402851	0.000038
C62	C	1.415234	0.097149	0.500038
C63	C	0.992278	-0.383397	0.000053
C64	C	1.492278	0.116603	0.500053
C65	C	1.145464	-0.394903	0.000074
C66	C	1.645464	0.105097	0.500074
C67	C	1.146354	-0.344487	0.000082
C68	C	1.646354	0.155513	0.500082
C69	C	1.070206	-0.313526	0.000076
C70	C	1.570206	0.186474	0.500076
C71	C	0.993168	-0.332981	0.000061
C72	C	1.493168	0.167019	0.500061
C73	C	0.839081	-0.371887	0.000022
C74	C	1.339081	0.128113	0.500022
C75	C	0.839979	-0.321466	0.000021
C76	C	1.339979	0.178534	0.500021
C77	C	0.917024	-0.302012	0.000037
C78	C	1.417024	0.197988	0.500037
C79	C	0.917911	-0.251604	0.000063
C80	C	1.417911	0.248396	0.500063
N81	N	0.994950	-0.232147	0.000069
N82	N	1.494950	0.267853	0.500069
C83	C	1.071098	-0.263108	0.000076
C84	C	1.571098	0.236892	0.500076
C85	C	0.909803	-0.710408	0.000030
C86	C	1.409803	-0.210408	0.500030
C87	C	0.908912	-0.760826	0.000030
C88	C	1.408912	-0.260826	0.500030
C89	C	1.062105	-0.772330	0.000044
C90	C	1.562105	-0.272330	0.500044
C91	C	1.062995	-0.721911	0.000050
C92	C	1.562995	-0.221911	0.500050
C93	C	0.986842	-0.690950	0.000036
C94	C	1.486842	-0.190950	0.500036
C95	C	1.072961	-0.157231	0.000093
C96	C	1.572961	0.342769	0.500093
C97	C	1.073845	-0.106810	0.000105
C98	C	1.573845	0.393190	0.500105
C99	C	0.920652	-0.095310	0.000086
C100	C	1.420652	0.404690	0.500086
C101	C	0.919768	-0.145727	0.000079
C102	C	1.419768	0.354273	0.500079
C103	C	0.995930	-0.176686	0.000080
C104	C	1.495930	0.323314	0.500080
O105	O	0.853269	-0.220600	0.000085
O106	O	1.353269	0.279400	0.500085
O107	O	1.136697	-0.241921	0.000071
O108	O	1.636697	0.258079	0.500071
C109	C	1.067536	-0.464774	0.000052
C110	C	1.567536	0.035226	0.500052
C111	C	0.990498	-0.484228	0.000037
C112	C	1.490498	0.015772	0.500037
C113	C	0.914350	-0.453268	0.000031
C114	C	1.414350	0.046732	0.500031
C115	C	0.989607	-0.534647	0.000037
C116	C	1.489607	-0.034647	0.500037
C117	C	1.065754	-0.565608	0.000044
C118	C	1.565754	-0.065608	0.500044
C119	C	1.142794	-0.546150	0.000050
C120	C	1.642794	-0.046150	0.500050
C121	C	1.143684	-0.495734	0.000058
C122	C	1.643684	0.004266	0.500058
C123	C	0.837311	-0.472725	0.000024
C124	C	1.337311	0.027275	0.500024
C125	C	0.836427	-0.523141	0.000017
C126	C	1.336427	-0.023141	0.500017
C127	C	0.912575	-0.554102	0.000023
C128	C	1.412575	-0.054102	0.500023
C129	C	1.144993	0.062658	0.000084
C130	C	1.644993	0.562658	0.500084
C131	C	1.238227	0.063615	0.000086
C132	C	1.738227	0.563615	0.500086
C133	C	0.984099	0.154554	0.000049
C134	C	1.484099	0.654554	0.500049
C135	C	0.985059	0.208213	0.000036
C136	C	1.485059	0.708213	0.500036
N137	N	0.991352	0.066198	0.230749
N138	N	1.491352	0.566198	0.730749
N139	N	0.991411	0.066162	-0.230607
N140	N	1.491411	0.566162	0.269393
C141	C	0.931267	0.100495	0.470419
C142	C	1.431267	0.600495	0.970419
C143	C	1.007044	0.109879	0.529758
C144	C	1.507044	0.609879	1.029758
C145	C	0.991374	0.066186	0.412356
C146	C	1.491374	0.566186	0.912356
C147	C	0.915617	0.056813	0.529759
C148	C	1.415617	0.556813	1.029759
C149	C	0.991388	0.066176	0.587780
C150	C	1.491388	0.566176	1.087780
C151	C	1.067190	0.075592	0.470389
C152	C	1.567190	0.575592	0.970389
C153	C	0.975712	0.022507	0.470385
C154	C	1.475712	0.522507	0.970385
C155	C	1.051545	0.031872	0.529697
C156	C	1.551545	0.531872	1.029697
C157	C	0.991365	0.066194	0.311299
C158	C	1.491365	0.566194	0.811299
C159	C	0.991406	0.066168	0.688836
C160	C	1.491406	0.566168	1.188836
H161	H	0.533491	0.109118	-0.134801
H162	H	1.033491	0.609118	0.365199
C163	C	0.442203	0.016304	0.156431
C164	C	0.942203	0.516304	0.656431
H165	H	0.404243	0.037845	0.190807
H166	H	0.904243	0.537845	0.690807
H167	H	0.490722	0.005519	0.191037
H168	H	0.990722	0.505519	0.691037
H169	H	0.415093	-0.010863	0.138883
H170	H	0.915093	0.489137	0.638883
C171	C	0.957767	-0.027370	0.435115
C172	C	1.457767	0.472630	0.935115
H173	H	0.903884	-0.033977	0.455406
H174	H	1.403884	0.466023	0.955406
H175	H	0.999918	-0.051810	0.456293
H176	H	1.499918	0.448190	0.956293
H177	H	0.958406	-0.027089	0.371879
H178	H	1.458406	0.472911	0.871879
H179	H	1.102437	0.002852	0.555561
H180	H	1.602437	0.502852	1.055561
H181	H	0.846175	-0.776661	0.000032
H182	H	1.346175	-0.276661	0.500032
C183	C	0.540607	0.116044	0.156407
C184	C	1.040607	0.616044	0.656407
H185	H	0.525476	0.099460	0.208235
H186	H	1.025476	0.599460	0.708235
H187	H	0.512889	0.148347	0.156924
H188	H	1.012889	0.648347	0.656924
H189	H	0.600032	0.116712	0.155508
H190	H	1.100032	0.616712	0.655508
H191	H	1.020304	0.146814	0.555837
H192	H	1.520304	0.646814	1.055837
C193	C	0.826029	-0.676357	0.000026
C194	C	1.326029	-0.176357	0.500026
H195	H	0.780026	-0.695170	0.000032
H196	H	1.280026	-0.195170	0.500032
H197	H	0.823187	-0.656447	-0.051604
H198	H	1.323187	-0.156447	0.448396
H199	H	0.823186	-0.656452	0.051669
H200	H	1.323186	-0.156452	0.551669
H201	H	1.131275	0.083560	0.444419
H202	H	1.631275	0.583560	0.944419
H203	H	0.851544	0.048890	0.555840
H204	H	1.351544	0.548890	1.055840
H205	H	1.136586	-0.090973	0.000120
H206	H	1.636586	0.409027	0.500120
H207	H	0.858655	-0.070093	0.000084
H208	H	1.358655	0.429907	0.500084
H209	H	1.124107	-0.797547	0.000049
H210	H	1.624107	-0.297547	0.500049
C211	C	0.576011	-0.031726	-0.000019
C212	C	1.076011	0.468274	0.499981
H213	H	0.560815	-0.048191	-0.051956
H214	H	1.060815	0.451809	0.448044
H215	H	0.560068	-0.048436	0.051316
H216	H	1.060068	0.451564	0.551316
H217	H	0.635361	-0.030747	0.000498
H218	H	1.135361	0.469253	0.500498
H219	H	0.418809	0.150587	-0.000042
H220	H	0.918809	0.650587	0.499958
C221	C	0.442185	0.016278	-0.156297
C222	C	0.942185	0.516278	0.343703
H223	H	0.469110	-0.016207	-0.156201
H224	H	0.969110	0.483793	0.343799
H225	H	0.458260	0.032498	-0.208144
H226	H	0.958260	0.532498	0.291856
H227	H	0.382638	0.016121	-0.155963
H228	H	0.882638	0.516121	0.344037
C229	C	1.226554	-0.580213	0.000050
C230	C	1.726554	-0.080213	0.500050
H231	H	1.214981	-0.613026	0.000036
H232	H	1.714981	-0.113026	0.500036
H233	H	1.258173	-0.574322	0.051684
H234	H	1.758173	-0.074322	0.551684
H235	H	1.258173	-0.574314	-0.051589
H236	H	1.758173	-0.074314	0.448411
C237	C	1.228433	-0.474341	0.000066
C238	C	1.728433	0.025659	0.500066
H239	H	1.273649	-0.500006	0.000061
H240	H	1.773649	-0.000006	0.500061
H241	H	1.231967	-0.454913	0.051699
H242	H	1.731967	0.045087	0.551699
H243	H	1.231975	-0.454913	-0.051574
H244	H	1.731975	0.045087	0.448426
H245	H	0.880487	0.129533	0.444392
H246	H	1.380487	0.629533	0.944392
H247	H	1.134979	-0.182432	0.000090
H248	H	1.634979	0.317568	0.500090
H249	H	1.209091	-0.328652	0.000091
H250	H	1.709091	0.171348	0.500091
C251	C	1.147743	-0.700515	0.000059
C252	C	1.647743	-0.200515	0.500059
H253	H	1.192962	-0.726179	0.000058
H254	H	1.692962	-0.226179	0.500058
H255	H	1.151273	-0.681085	0.051690
H256	H	1.651273	-0.181085	0.551690
H257	H	1.151285	-0.681089	-0.051583
H258	H	1.651285	-0.181089	0.448417
H259	H	0.776344	-0.387718	0.000004
H260	H	1.276344	0.112282	0.500004
C261	C	0.756211	-0.287410	0.000007
C262	C	1.256211	0.212590	0.500007
H263	H	0.767769	-0.254596	0.000005
H264	H	1.267769	0.245404	0.500005
H265	H	0.724582	-0.293312	0.051632
H266	H	1.224582	0.206688	0.551632
H267	H	0.724608	-0.293310	-0.051641
H268	H	1.224608	0.206690	0.448359
C269	C	0.835023	-0.167128	0.000060
C270	C	1.335023	0.332872	0.500060
H271	H	0.789800	-0.141466	0.000052
H272	H	1.289800	0.358534	0.500052
H273	H	0.831475	-0.186563	0.051683
H274	H	1.331475	0.313437	0.551683
H275	H	0.831505	-0.186549	-0.051590
H276	H	1.331505	0.313451	0.448410
H277	H	0.773684	-0.538976	0.000012
H278	H	1.273684	-0.038976	0.500012
H279	H	0.775301	-0.447521	0.000017
H280	H	1.275301	0.052479	0.500017
H281	H	1.207476	-0.420107	0.000076
H282	H	1.707476	0.079893	0.500076
