data_functionalizedCrystal
_audit_creation_method	'MofGen! by Chris Wilmer'
_symmetry_space_group_name_H-M	'P1'
_symmetry_Int_Tables_number	1
_symmetry_cell_setting	triclinic
loop_
_symmetry_equiv_pos_as_xyz
  x,y,z
_cell_length_a	27.732048
_cell_length_b	17.699083
_cell_length_c	16.176319
_cell_angle_alpha	90.001389
_cell_angle_beta	89.988239
_cell_angle_gamma	97.037165
loop_
_atom_site_label
_atom_site_type_symbol
_atom_site_fract_x
_atom_site_fract_y
_atom_site_fract_z
O1	O	0.061127	-1.003540	-0.068640
O2	O	0.394460	-0.670207	0.264694
O3	O	0.727794	-0.336873	0.598027
O4	O	0.069080	-0.783091	-0.068668
O5	O	0.402413	-0.449758	0.264665
O6	O	0.735746	-0.116425	0.597999
O7	O	-0.005269	-0.900162	-0.068637
O8	O	0.328065	-0.566829	0.264696
O9	O	0.661398	-0.233496	0.598029
O10	O	0.135475	-0.886469	-0.068670
O11	O	0.468809	-0.553136	0.264663
O12	O	0.802142	-0.219802	0.597996
O13	O	-0.005273	-0.900146	0.068856
O14	O	0.328060	-0.566813	0.402189
O15	O	0.661393	-0.233480	0.735523
O16	O	0.069075	-0.783075	0.068825
O17	O	0.402408	-0.449742	0.402159
O18	O	0.735742	-0.116409	0.735492
O19	O	0.061122	-1.003524	0.068853
O20	O	0.394456	-0.670191	0.402187
O21	O	0.727789	-0.336857	0.735520
Cu22	Cu	0.065098	-0.893298	0.081394
Cu23	Cu	0.398432	-0.559965	0.414727
Cu24	Cu	0.731765	-0.226632	0.748060
Cu25	Cu	0.065104	-0.893317	-0.081208
Cu26	Cu	0.398437	-0.559984	0.252125
Cu27	Cu	0.731770	-0.226650	0.585459
O28	O	0.135471	-0.886453	0.068823
O29	O	0.468804	-0.553120	0.402156
O30	O	0.802137	-0.219786	0.735489
C31	C	0.068792	-0.754889	0.000075
C32	C	0.402126	-0.421556	0.333409
C33	C	0.735459	-0.088222	0.666742
C34	C	0.067938	-0.670878	0.000065
C35	C	0.401271	-0.337545	0.333398
C36	C	0.734604	-0.004212	0.666732
C37	C	-0.023279	-0.899867	0.000112
C38	C	0.310054	-0.566534	0.333445
C39	C	0.643388	-0.233200	0.666778
C40	C	-0.076937	-0.899001	0.000118
C41	C	0.256396	-0.565668	0.333452
C42	C	0.589730	-0.232335	0.666785
C43	C	0.061410	-1.031726	0.000108
C44	C	0.394743	-0.698393	0.333442
C45	C	0.728076	-0.365060	0.666775
C46	C	0.062264	-1.115737	0.000113
C47	C	0.395598	-0.782404	0.333446
C48	C	0.728931	-0.449070	0.666780
C49	C	-0.415523	-0.962734	0.000084
C50	C	-0.082190	-0.629400	0.333417
C51	C	0.251144	-0.296067	0.666751
C52	C	-0.617194	-0.959522	0.000072
C53	C	-0.283861	-0.626189	0.333405
C54	C	0.049473	-0.292856	0.666739
O55	O	-0.648240	-1.017801	0.000043
O56	O	-0.314907	-0.684468	0.333377
O57	O	0.018426	-0.351134	0.666710
N58	N	-0.636567	-0.890104	0.000064
N59	N	-0.303234	-0.556771	0.333397
N60	N	0.030099	-0.223437	0.666731
C61	C	-0.605520	-0.821484	0.000053
C62	C	-0.272186	-0.488150	0.333387
C63	C	0.061147	-0.154817	0.666720
O64	O	-0.626625	-0.762366	0.000038
O65	O	-0.293292	-0.429032	0.333371
O66	O	0.040041	-0.095699	0.666704
C67	C	-0.403849	-0.824696	0.000059
C68	C	-0.070516	-0.491363	0.333393
C69	C	0.262817	-0.158029	0.666726
C70	C	-0.384479	-0.894119	0.000076
C71	C	-0.051146	-0.560785	0.333409
C72	C	0.282188	-0.227452	0.666743
C73	C	-0.396152	-1.032151	0.000100
C74	C	-0.062819	-0.698817	0.333433
C75	C	0.270515	-0.365484	0.666766
C76	C	-0.345737	-1.032953	0.000107
C77	C	-0.012404	-0.699619	0.333440
C78	C	0.320929	-0.366286	0.666774
C79	C	-0.314693	-0.964338	0.000099
C80	C	0.018640	-0.631004	0.333432
C81	C	0.351973	-0.297671	0.666766
C82	C	-0.334064	-0.894921	0.000083
C83	C	-0.000731	-0.561587	0.333417
C84	C	0.332602	-0.228254	0.666750
C85	C	-0.372802	-0.756076	0.000043
C86	C	-0.039469	-0.422743	0.333376
C87	C	0.293864	-0.089410	0.666710
C88	C	-0.322382	-0.756886	0.000042
C89	C	0.010951	-0.423552	0.333376
C90	C	0.344284	-0.090219	0.666709
C91	C	-0.303012	-0.826308	0.000059
C92	C	0.030321	-0.492975	0.333392
C93	C	0.363655	-0.159642	0.666726
C94	C	-0.252605	-0.827108	0.000083
C95	C	0.080728	-0.493775	0.333416
C96	C	0.414061	-0.160441	0.666749
N97	N	-0.233232	-0.896526	0.000091
N98	N	0.100101	-0.563193	0.333424
N99	N	0.433435	-0.229859	0.666758
C100	C	-0.264276	-0.965141	0.000099
C101	C	0.069057	-0.631808	0.333432
C102	C	0.402391	-0.298474	0.666766
C103	C	-0.711400	-0.819802	0.000052
C104	C	-0.378066	-0.486469	0.333385
C105	C	-0.044733	-0.153136	0.666719
C106	C	-0.761817	-0.818999	0.000052
C107	C	-0.428484	-0.485666	0.333385
C108	C	-0.095150	-0.152332	0.666719
C109	C	-0.773488	-0.957038	0.000069
C110	C	-0.440155	-0.623704	0.333402
C111	C	-0.106821	-0.290371	0.666736
C112	C	-0.723070	-0.957840	0.000075
C113	C	-0.389736	-0.624507	0.333408
C114	C	-0.056403	-0.291174	0.666742
C115	C	-0.692026	-0.889220	0.000060
C116	C	-0.358693	-0.555887	0.333393
C117	C	-0.025360	-0.222554	0.666727
C118	C	-0.158401	-0.966820	0.000115
C119	C	0.174933	-0.633487	0.333449
C120	C	0.508266	-0.300154	0.666782
C121	C	-0.107981	-0.967616	0.000126
C122	C	0.225352	-0.634283	0.333460
C123	C	0.558686	-0.300950	0.666793
C124	C	-0.096314	-0.829578	0.000105
C125	C	0.237019	-0.496245	0.333438
C126	C	0.570352	-0.162911	0.666772
C127	C	-0.146730	-0.828781	0.000098
C128	C	0.186604	-0.495448	0.333432
C129	C	0.519937	-0.162115	0.666765
C130	C	-0.177772	-0.897409	0.000101
C131	C	0.155561	-0.564076	0.333434
C132	C	0.488894	-0.230742	0.666767
O133	O	-0.221531	-0.768860	0.000102
O134	O	0.111802	-0.435527	0.333436
O135	O	0.445136	-0.102194	0.666769
O136	O	-0.243161	-1.024251	0.000096
O137	O	0.090172	-0.690917	0.333430
O138	O	0.423506	-0.357584	0.666763
C139	C	-0.465938	-0.961931	0.000077
C140	C	-0.132604	-0.628598	0.333410
C141	C	0.200729	-0.295265	0.666743
C142	C	-0.485309	-0.892514	0.000061
C143	C	-0.151975	-0.559181	0.333394
C144	C	0.181358	-0.225848	0.666728
C145	C	-0.454265	-0.823899	0.000053
C146	C	-0.120931	-0.490566	0.333386
C147	C	0.212402	-0.157233	0.666720
C148	C	-0.535726	-0.891711	0.000061
C149	C	-0.202393	-0.558378	0.333394
C150	C	0.130941	-0.225045	0.666728
C151	C	-0.566770	-0.960326	0.000069
C152	C	-0.233437	-0.626993	0.333402
C153	C	0.099897	-0.293659	0.666736
C154	C	-0.547397	-1.029744	0.000077
C155	C	-0.214063	-0.696411	0.333410
C156	C	0.119270	-0.363078	0.666744
C157	C	-0.496982	-1.030546	0.000085
C158	C	-0.163648	-0.697213	0.333418
C159	C	0.169685	-0.363880	0.666751
C160	C	-0.473638	-0.754481	0.000045
C161	C	-0.140305	-0.421148	0.333378
C162	C	0.193029	-0.087815	0.666711
C163	C	-0.524053	-0.753685	0.000038
C164	C	-0.190720	-0.420351	0.333372
C165	C	0.142613	-0.087018	0.666705
C166	C	-0.555097	-0.822300	0.000046
C167	C	-0.221764	-0.488966	0.333380
C168	C	0.111569	-0.155633	0.666713
C169	C	0.153481	-0.886748	0.000072
C170	C	0.486814	-0.553415	0.333405
C171	C	0.820148	-0.220082	0.666739
C172	C	0.207139	-0.887614	0.000060
C173	C	0.540472	-0.554281	0.333393
C174	C	0.873806	-0.220947	0.666727
N175	N	0.065094	-0.893290	0.195759
N176	N	0.398427	-0.559957	0.529092
N177	N	0.731761	-0.226624	0.862425
C178	C	0.111579	-0.621873	0.000055
C179	C	0.444912	-0.288539	0.333388
C180	C	0.778245	0.044794	0.666722
C181	C	0.110772	-0.542936	0.000066
C182	C	0.444106	-0.209603	0.333399
C183	C	0.777439	0.123730	0.666733
C184	C	0.066325	-0.513007	0.000081
C185	C	0.399658	-0.179674	0.333414
C186	C	0.732991	0.153659	0.666748
C187	C	0.022680	-0.562019	0.000094
C188	C	0.356014	-0.228686	0.333427
C189	C	0.689347	0.104647	0.666760
C190	C	0.023487	-0.640954	0.000089
C191	C	0.356820	-0.307621	0.333422
C192	C	0.690154	0.025713	0.666755
C193	C	0.019426	-0.243685	0.000115
C194	C	0.352760	0.089648	0.333448
C195	C	0.686093	0.422982	0.666781
C196	C	0.018623	-0.164744	0.000117
C197	C	0.351956	0.168589	0.333451
C198	C	0.685290	0.501922	0.666784
C199	C	0.106712	-0.145667	0.000092
C200	C	0.440045	0.187666	0.333425
C201	C	0.773378	0.520999	0.666759
C202	C	0.107518	-0.224602	0.000087
C203	C	0.440852	0.108731	0.333421
C204	C	0.774185	0.442065	0.666754
C205	C	0.063874	-0.273607	0.000104
C206	C	0.397208	0.059726	0.333437
C207	C	0.730541	0.393060	0.666771
C208	C	0.064749	-0.359199	0.000094
C209	C	0.398082	-0.025865	0.333427
C210	C	0.731416	0.307468	0.666760
C211	C	0.065450	-0.427418	0.000085
C212	C	0.398783	-0.094084	0.333419
C213	C	0.732116	0.239249	0.666752
N214	N	0.065104	-0.893331	-0.195573
N215	N	0.398438	-0.559998	0.137760
N216	N	0.731771	-0.226664	0.471093
C217	C	0.032186	-0.945145	0.239037
C218	C	0.365519	-0.611811	0.572370
C219	C	0.698853	-0.278478	0.905703
C220	C	0.032185	-0.945149	0.325584
C221	C	0.365519	-0.611815	0.658917
C222	C	0.698852	-0.278482	0.992250
C223	C	0.065096	-0.893301	0.368851
C224	C	0.398429	-0.559968	0.702185
C225	C	0.731762	-0.226635	1.035518
C226	C	0.098005	-0.841441	0.325568
C227	C	0.431339	-0.508108	0.658901
C228	C	0.764672	-0.174775	0.992234
C229	C	0.098003	-0.841434	0.239022
C230	C	0.431336	-0.508101	0.572355
C231	C	0.764670	-0.174768	0.905689
C232	C	0.098014	-0.841467	0.674596
C233	C	0.431348	-0.508134	1.007929
C234	C	0.764681	-0.174800	1.341262
C235	C	0.098015	-0.841479	0.761147
C236	C	0.431348	-0.508146	1.094481
C237	C	0.764682	-0.174813	1.427814
C238	C	0.032197	-0.945181	0.761157
C239	C	0.365530	-0.611848	1.094491
C240	C	0.698863	-0.278515	1.427824
C241	C	0.032194	-0.945174	0.674612
C242	C	0.365528	-0.611841	1.007945
C243	C	0.698861	-0.278508	1.341279
C244	C	0.065102	-0.893312	0.631336
C245	C	0.398435	-0.559979	0.964669
C246	C	0.731769	-0.226646	1.298002
C247	C	0.065102	-0.893308	0.537491
C248	C	0.398435	-0.559975	0.870825
C249	C	0.731768	-0.226641	1.204158
C250	C	0.065099	-0.893309	0.462694
C251	C	0.398432	-0.559975	0.796027
C252	C	0.731765	-0.226642	1.129361
H253	H	-0.092213	-1.024151	0.000142
H254	H	0.241121	-0.690818	0.333475
H255	H	0.574454	-0.357484	0.666809
H256	H	-0.777584	-0.762468	0.000053
H257	H	-0.444250	-0.429135	0.333386
H258	H	-0.110917	-0.095801	0.666719
F259	F	-0.028687	-0.132894	0.000133
F260	F	0.304647	0.200439	0.333467
F261	F	0.637980	0.533772	0.666800
F262	F	-0.580445	-1.102769	0.000090
F263	F	-0.247111	-0.769436	0.333424
F264	F	0.086222	-0.436103	0.666757
F265	F	0.133029	-0.786257	0.371617
F266	F	0.466362	-0.452923	0.704950
F267	F	0.799696	-0.119590	1.038284
H268	H	0.124800	-0.799209	0.203786
H269	H	0.458133	-0.465875	0.537119
H270	H	0.791466	-0.132542	0.870453
H271	H	-0.297108	-0.701006	0.000029
H272	H	0.036225	-0.367672	0.333362
H273	H	0.369558	-0.034339	0.666696
H274	H	-0.388565	-0.699545	0.000024
H275	H	-0.055231	-0.366212	0.333358
H276	H	0.278102	-0.032878	0.666691
F277	F	0.158887	-0.653718	0.000034
F278	F	0.492220	-0.320384	0.333367
F279	F	0.825553	0.012949	0.666700
H280	H	-0.183670	-1.022703	0.000114
H281	H	0.149663	-0.689370	0.333448
H282	H	0.482996	-0.356037	0.666781
H283	H	0.146309	-0.503039	0.000057
H284	H	0.479643	-0.169705	0.333390
H285	H	0.812976	0.163628	0.666723
F286	F	0.154825	-0.256450	0.000066
F287	F	0.488159	0.076883	0.333400
F288	F	0.821492	0.410217	0.666733
F289	F	-0.167346	-0.754895	0.000096
F290	F	0.165988	-0.421561	0.333429
F291	F	0.499321	-0.088228	0.666762
F292	F	0.133038	-0.786274	0.628545
F293	F	0.466371	-0.452941	0.961878
F294	F	0.799705	-0.119608	1.295211
F295	F	-0.027024	-0.295830	0.000133
F296	F	0.306310	0.037503	0.333466
F297	F	0.639643	0.370837	0.666799
F298	F	0.153162	-0.093506	0.000077
F299	F	0.486495	0.239827	0.333411
F300	F	0.819829	0.573160	0.666744
H301	H	-0.013510	-0.537645	0.000118
H302	H	0.319824	-0.204312	0.333451
H303	H	0.653157	0.129021	0.666784
H304	H	-0.012050	-0.680855	0.000096
H305	H	0.321283	-0.347521	0.333430
H306	H	0.654617	-0.014188	0.666763
F307	F	-0.002831	-1.000360	0.628567
F308	F	0.330502	-0.667026	0.961900
F309	F	0.663836	-0.333693	1.295233
H310	H	0.005389	-0.987368	0.203814
H311	H	0.338722	-0.654035	0.537147
H312	H	0.672055	-0.320701	0.870480
F313	F	-0.002840	-1.000337	0.371643
F314	F	0.330494	-0.667003	0.704977
F315	F	0.663827	-0.333670	1.038310
H316	H	0.005400	-0.987408	0.796402
H317	H	0.338733	-0.654075	1.129736
H318	H	0.672066	-0.320742	1.463069
H319	H	-0.329971	-1.089484	0.000117
H320	H	0.003362	-0.756150	0.333450
H321	H	0.336696	-0.422817	0.666784
F322	F	-0.702459	-1.031728	0.000092
F323	F	-0.369126	-0.698395	0.333426
F324	F	-0.035793	-0.365062	0.666759
F325	F	-0.429185	-1.105187	0.000108
F326	F	-0.095851	-0.771854	0.333441
F327	F	0.237482	-0.438520	0.666774
F328	F	-0.678366	-0.746762	0.000036
F329	F	-0.345033	-0.413429	0.333369
F330	F	-0.011700	-0.080096	0.666702
F331	F	-0.806536	-1.030063	0.000076
F332	F	-0.473203	-0.696730	0.333409
F333	F	-0.139869	-0.363397	0.666743
F334	F	-0.063267	-0.756557	0.000097
F335	F	0.270067	-0.423224	0.333430
F336	F	0.603400	-0.089890	0.666763
H337	H	0.124815	-0.799256	0.796374
H338	H	0.458149	-0.465923	1.129708
H339	H	0.791482	-0.132589	1.463041
H340	H	-0.481215	-1.087078	0.000098
H341	H	-0.147882	-0.753744	0.333431
H342	H	0.185451	-0.420411	0.666764
F343	F	-0.544663	-0.679790	0.000026
F344	F	-0.211329	-0.346457	0.333359
F345	F	0.122004	-0.013124	0.666693
H346	H	-0.448366	-0.698605	0.000036
H347	H	-0.115033	-0.365272	0.333370
H348	H	0.218300	-0.031939	0.666703
