data_functionalizedCrystal
_audit_creation_method	'MofGen! by Chris Wilmer'
_symmetry_space_group_name_H-M	'P1'
_symmetry_Int_Tables_number	1
_symmetry_cell_setting	triclinic
loop_
_symmetry_equiv_pos_as_xyz
  x,y,z
_cell_length_a	21.295417
_cell_length_b	18.050591
_cell_length_c	18.050582
_cell_angle_alpha	89.979078
_cell_angle_beta	90.026755
_cell_angle_gamma	89.973488
loop_
_atom_site_label
_atom_site_type_symbol
_atom_site_fract_x
_atom_site_fract_y
_atom_site_fract_z
Zn1	Zn	-0.250716	-1.135281	0.420010
Zn2	Zn	-0.355977	-1.135186	0.295811
Zn3	Zn	-0.250719	-1.011100	0.295821
Zn4	Zn	-0.355944	-1.011043	0.419946
O5	O	-0.303339	-1.073153	0.357897
O6	O	-0.264692	-1.239193	0.403557
O7	O	-0.342030	-1.118710	0.191887
O8	O	-0.162629	-1.027636	0.312326
O9	O	-0.342027	-1.239124	0.312308
O10	O	-0.162627	-1.118871	0.403567
O11	O	-0.264697	-1.027545	0.191895
O12	O	-0.264664	-0.907168	0.312264
O13	O	-0.341971	-1.027539	0.523879
O14	O	-0.341973	-0.907126	0.403458
O15	O	-0.264660	-1.118816	0.523926
O16	O	-0.444062	-1.118655	0.312247
O17	O	-0.444038	-1.027448	0.403449
C18	C	-0.303316	-0.880200	0.357856
C19	C	-0.303321	-0.797655	0.357856
C20	C	-0.466891	-1.073055	0.357856
C21	C	-0.536859	-1.073081	0.357863
C22	C	-0.303311	-1.073182	0.551603
C23	C	-0.303299	-1.073194	0.634148
C24	C	-0.569717	-1.120615	0.310423
C25	C	-0.635460	-1.120650	0.310440
C26	C	-0.668341	-1.073138	0.357889
C27	C	-0.635475	-1.025600	0.405338
C28	C	-0.569734	-1.025572	0.405325
N29	N	-0.771604	-1.008171	0.363536
N30	N	-0.834055	-1.008200	0.363544
C31	C	-0.866416	-1.073221	0.357931
N32	N	-0.833966	-1.138214	0.352296
N33	N	-0.771509	-1.138184	0.352284
C34	C	-0.739627	-1.073163	0.357908
C35	C	-0.970560	-1.120797	0.310507
C36	C	-1.036304	-1.120833	0.310529
C37	C	-1.036318	-1.025776	0.405423
C38	C	-0.970575	-1.025747	0.405405
C39	C	-0.937700	-1.073256	0.357943
C40	C	-0.139149	-1.073270	0.357954
C41	C	-0.069181	-1.073321	0.357979
C42	C	-0.303363	-1.266858	0.357939
C43	C	-0.303373	-1.349404	0.357956
C44	C	-0.261232	-0.598205	0.308379
C45	C	-0.318646	-0.548783	0.290098
C46	C	-0.303340	-0.646524	0.357889
C47	C	-0.245945	-0.548865	0.376169
C48	C	-0.303353	-0.500539	0.357920
C49	C	-0.360785	-0.598189	0.339573
C50	C	-0.288045	-0.598276	0.425676
C51	C	-0.345499	-0.548875	0.407420
C52	C	-0.303331	-0.730623	0.357870
C53	C	-0.303368	-0.416443	0.357940
C54	C	-0.303322	-1.073166	0.164945
C55	C	-0.303156	-1.073298	0.082399
C56	C	-0.345283	-1.023596	0.833574
C57	C	-0.360675	-1.091350	0.882971
C58	C	-0.303251	-1.073231	0.785279
C59	C	-0.287842	-1.005513	0.882964
C60	C	-0.303206	-1.073260	0.931264
C61	C	-0.318673	-1.141021	0.833589
C62	C	-0.245814	-1.055138	0.833577
C63	C	-0.261183	-1.122940	0.882952
C64	C	-0.303279	-1.073213	0.701181
C65	C	-0.303178	-1.073286	1.015361
H66	H	-0.542953	-1.159302	0.271778
H67	H	-0.381156	-0.527352	0.449303
C68	C	-0.671612	-1.172940	0.258246
N69	N	-0.698839	-1.212322	0.218931
C70	C	-0.533588	-0.973288	0.457525
N71	N	-0.506363	-0.933910	0.496845
H72	H	-1.063089	-0.987094	0.444060
H73	H	-0.274828	-0.948233	0.904653
C74	C	-0.180364	-0.519597	0.397041
N75	N	-0.130968	-0.497556	0.412757
C76	C	-0.426383	-0.627335	0.318609
N77	N	-0.475790	-0.649289	0.302815
H78	H	-0.662251	-0.986917	0.443973
H79	H	-0.409229	-1.106671	0.904667
C80	C	-0.180239	-1.034412	0.804238
N81	N	-0.130848	-1.018792	0.782137
H82	H	-0.380875	-0.981660	0.811894
C83	C	-0.336335	-1.218425	0.804414
N84	N	-0.349641	-1.276723	0.782438
H85	H	-0.331593	-0.527044	0.232786
H86	H	-0.225619	-1.164975	0.904496
H87	H	-0.943792	-1.159484	0.271862
C88	C	-0.270528	-0.627675	0.503076
N89	N	-0.257326	-0.649823	0.561374
H90	H	-1.063056	-1.159545	0.271899
C91	C	-0.934429	-0.973470	0.457609
N92	N	-0.907205	-0.934101	0.496940
H93	H	-0.225660	-0.619865	0.266464
