data_functionalizedCrystal
_audit_creation_method	'MofGen! by Chris Wilmer'
_symmetry_space_group_name_H-M	'P1'
_symmetry_Int_Tables_number	1
_symmetry_cell_setting	triclinic
loop_
_symmetry_equiv_pos_as_xyz
  x,y,z
_cell_length_a	15.538191
_cell_length_b	23.532407
_cell_length_c	14.750779
_cell_angle_alpha	77.433997
_cell_angle_beta	97.572172
_cell_angle_gamma	65.060386
loop_
_atom_site_label
_atom_site_type_symbol
_atom_site_fract_x
_atom_site_fract_y
_atom_site_fract_z
O1	O	1.231045	-0.168713	-0.079813
O2	O	0.956168	-0.102826	-0.079822
O3	O	1.101900	-0.220390	-0.079800
O4	O	1.085313	-0.051149	-0.079835
O5	O	1.143097	-0.253621	0.079857
O6	O	0.997364	-0.136057	0.079835
O7	O	1.272242	-0.201944	0.079843
Zn8	Zn	1.141344	-0.174277	0.105188
Zn9	Zn	1.087066	-0.130493	-0.105166
O10	O	1.126510	-0.084380	0.079821
C11	C	0.941606	-0.112548	0.000006
C12	C	0.836839	-0.092014	0.000003
C13	C	0.550965	-0.296010	0.000031
C14	C	0.452517	-0.276701	0.000026
C15	C	0.429052	-0.168092	0.000004
C16	C	0.527501	-0.187393	0.000013
C17	C	0.588450	-0.251353	0.000026
C18	C	0.564986	-0.142735	0.000008
C19	C	0.663425	-0.162034	0.000012
C20	C	0.724379	-0.225990	0.000022
C21	C	0.686889	-0.270651	0.000030
C22	C	0.504034	-0.078774	-0.000012
C23	C	0.541519	-0.034116	-0.000017
C24	C	0.639961	-0.053416	-0.000006
C25	C	0.700915	-0.117373	0.000004
C26	C	0.677451	-0.008755	-0.000014
C27	C	0.775891	-0.028054	-0.000010
C28	C	0.799354	-0.136672	0.000008
C29	C	1.122077	-0.258136	0.000031
C30	C	1.120810	-0.321097	0.000038
C31	C	1.199074	-0.736103	-0.000012
C32	C	1.197893	-0.795262	-0.000019
O33	O	1.270448	-0.846752	-0.000052
N34	N	1.111258	-0.800275	-0.000021
C35	C	1.025796	-0.746122	-0.000026
O36	O	0.951997	-0.755818	-0.000029
C37	C	1.026976	-0.686963	-0.000025
C38	C	1.113619	-0.681957	-0.000013
C39	C	1.285710	-0.731095	-0.000001
C40	C	1.286891	-0.671940	0.000008
C41	C	1.201436	-0.617794	0.000006
C42	C	1.114800	-0.622802	-0.000004
C43	C	0.941513	-0.632810	-0.000037
C44	C	0.942701	-0.573649	-0.000037
C45	C	1.029344	-0.568643	-0.000025
C46	C	1.030526	-0.509501	0.000003
N47	N	1.117161	-0.504489	0.000005
C48	C	1.202616	-0.558635	0.000007
C49	C	1.023324	-0.870362	-0.000028
C50	C	1.022144	-0.929521	-0.000022
C51	C	1.194241	-0.978656	-0.000017
C52	C	1.195421	-0.919497	-0.000017
C53	C	1.109959	-0.865349	-0.000026
C54	C	1.205090	-0.434404	0.000027
C55	C	1.206264	-0.375243	0.000040
C56	C	1.034167	-0.326112	0.000030
C57	C	1.032993	-0.385268	0.000022
C58	C	1.118461	-0.439415	0.000017
O59	O	0.958008	-0.457984	0.000032
O60	O	1.276399	-0.548925	-0.000002
C61	C	1.286804	-0.192222	0.000014
C62	C	1.391568	-0.212754	0.000010
C63	C	1.106332	-0.046633	-0.000012
C64	C	1.107598	0.016329	-0.000025
N65	N	1.178395	-0.204160	0.248749
N66	N	1.050023	-0.100616	-0.248728
C67	C	0.946546	-0.017183	0.600532
C68	C	0.972516	-0.038120	0.701035
C69	C	1.101588	-0.142200	0.701018
C70	C	1.075626	-0.121272	0.600512
C71	C	0.998105	-0.058763	0.550278
C72	C	1.127185	-0.162853	0.550258
C73	C	1.101228	-0.141925	0.449762
C74	C	1.023713	-0.079417	0.399520
C75	C	0.972148	-0.037835	0.449781
C76	C	1.204710	-0.225360	0.600495
C77	C	1.256269	-0.266941	0.550240
C78	C	1.230308	-0.246015	0.449742
C79	C	1.152792	-0.183507	0.399500
C80	C	1.281872	-0.287597	0.399480
C81	C	1.255915	-0.266669	0.298984
C82	C	1.126836	-0.162579	0.299004
H83	H	0.422002	-0.313071	0.000029
H84	H	0.909017	0.013064	0.408878
F85	F	0.940783	-0.390600	0.000027
H86	H	1.357443	-0.667871	0.000014
H87	H	0.964593	-0.282016	0.000032
F88	F	1.285189	-1.036293	-0.000020
F89	F	0.364175	-0.100022	-0.000016
H90	H	0.423878	-0.063063	-0.000018
F91	F	0.612570	0.059316	-0.000042
F92	F	0.849293	-0.638123	-0.000053
F93	F	0.815787	0.019476	-0.000017
H94	H	0.736519	-0.322735	0.000046
F95	F	1.044319	-0.096052	0.245538
F96	F	1.376670	-0.788716	-0.000000
H97	H	1.265973	-0.915427	-0.000008
H98	H	1.274686	-0.478484	0.000019
H99	H	0.883414	0.033716	0.559629
F100	F	1.298485	-0.369921	0.000052
H101	H	1.344996	-0.338490	0.440395
F102	F	1.310794	-0.310924	0.245499
F103	F	0.917632	0.006143	0.754513
F104	F	1.232335	-0.247629	0.707453
F105	F	1.184092	-0.208725	0.754489
H106	H	0.600595	-0.348094	0.000047
H107	H	1.319390	-0.317836	0.591153
F108	F	0.929931	-0.934845	-0.000017
F109	F	0.851736	-0.516021	-0.000049
H110	H	0.953727	-0.826275	-0.000028
F111	F	0.996092	-0.057143	0.292561
F112	F	0.864229	-0.204748	0.000033
F113	F	0.829147	-0.246529	0.000021
H114	H	0.491880	0.017961	-0.000031
