data_functionalizedCrystal
_audit_creation_method	'MofGen! by Chris Wilmer'
_symmetry_space_group_name_H-M	'P1'
_symmetry_Int_Tables_number	1
_symmetry_cell_setting	triclinic
loop_
_symmetry_equiv_pos_as_xyz
  x,y,z
_cell_length_a	10.967926
_cell_length_b	14.044190
_cell_length_c	9.482900
_cell_angle_alpha	100.185237
_cell_angle_beta	92.549900
_cell_angle_gamma	88.857419
loop_
_atom_site_label
_atom_site_type_symbol
_atom_site_fract_x
_atom_site_fract_y
_atom_site_fract_z
O1	O	1.628190	0.167989	0.286996
O2	O	2.128190	0.667989	0.786996
O3	O	1.279200	0.170075	0.199560
O4	O	1.779200	0.670075	0.699560
O5	O	1.448449	0.030855	0.241992
O6	O	1.948449	0.530855	0.741992
O7	O	1.458942	0.307209	0.244564
O8	O	1.958942	0.807209	0.744564
O9	O	1.414083	0.059253	0.475169
O10	O	1.914083	0.559253	0.975169
O11	O	1.244835	0.198473	0.432737
O12	O	1.744835	0.698473	0.932737
O13	O	1.593825	0.196386	0.520173
O14	O	2.093825	0.696386	1.020173
Cu15	Cu	1.416192	0.200023	0.497746
Cu16	Cu	1.916192	0.700023	0.997746
Cu17	Cu	1.456833	0.166439	0.221987
Cu18	Cu	1.956833	0.666439	0.721987
O19	O	1.424577	0.335606	0.477741
O20	O	1.924577	0.835606	0.977741
C21	C	1.217085	0.181977	0.304891
C22	C	1.717085	0.681977	0.804891
C23	C	1.083197	0.175119	0.271348
C24	C	1.583197	0.675119	0.771348
C25	C	1.005703	0.186773	0.377186
C26	C	1.505703	0.686773	0.877186
C27	C	0.867323	0.179685	0.342520
C28	C	1.367323	0.679685	0.842520
C29	C	1.426678	0.009569	0.357435
C30	C	1.926678	0.509569	0.857435
C31	C	1.412994	-0.096165	0.354020
C32	C	1.912994	0.403835	0.854020
C33	C	1.485028	-0.343775	0.372010
C34	C	1.985028	0.156225	0.872010
C35	C	1.388005	-0.289759	0.347712
C36	C	1.888005	0.210241	0.847712
C37	C	1.401912	-0.182033	0.351222
C38	C	1.901912	0.317967	0.851222
C39	C	1.471122	-0.451511	0.368500
C40	C	1.971122	0.048489	0.868500
C41	C	1.655941	0.184485	0.414839
C42	C	2.155941	0.684485	0.914839
C43	C	1.789830	0.191341	0.448373
C44	C	2.289830	0.691341	0.948373
C45	C	1.446348	0.356892	0.362295
C46	C	1.946348	0.856892	0.862295
C47	C	1.460033	0.462625	0.365701
C48	C	1.960033	0.962625	0.865701
N49	N	1.387616	0.223643	0.691702
N50	N	1.887616	0.723643	1.191702
N51	N	1.485418	0.142811	0.028034
N52	N	1.985418	0.642811	0.528034
C53	C	1.448396	0.173401	0.779139
C54	C	1.948396	0.673401	1.279139
C55	C	1.424630	0.193061	0.940598
C56	C	1.924630	0.693061	1.440598
H57	H	0.831227	0.164458	0.226237
H58	H	1.331227	0.664458	0.726237
Cl59	Cl	1.555608	0.084292	0.710105
Cl60	Cl	2.055608	0.584292	1.210105
H61	H	1.578528	-0.309116	0.395451
H62	H	2.078528	0.190884	0.895451
Cl63	Cl	0.845548	0.214835	0.627909
Cl64	Cl	1.345548	0.714835	1.127909
Cl65	Cl	1.243632	-0.343266	0.311539
Cl66	Cl	1.743632	0.156734	0.811539
H67	H	1.354990	0.250631	0.985263
H68	H	1.854990	0.750631	1.485263
Cl69	Cl	1.027471	0.151606	0.091821
Cl70	Cl	1.527471	0.651606	0.591821
H71	H	1.317981	0.281210	0.736373
H72	H	1.817981	0.781210	1.236373
Cl73	Cl	1.061430	0.210276	0.556713
Cl74	Cl	1.561430	0.710276	1.056713
Cl75	Cl	1.593209	0.054133	0.959154
Cl76	Cl	2.093209	0.554133	1.459154
