data_functionalizedCrystal
_audit_creation_method	'MofGen! by Chris Wilmer'
_symmetry_space_group_name_H-M	'P1'
_symmetry_Int_Tables_number	1
_symmetry_cell_setting	triclinic
loop_
_symmetry_equiv_pos_as_xyz
  x,y,z
_cell_length_a	6.817900
_cell_length_b	17.982959
_cell_length_c	14.858572
_cell_angle_alpha	95.362884
_cell_angle_beta	104.524003
_cell_angle_gamma	102.451857
loop_
_atom_site_label
_atom_site_type_symbol
_atom_site_fract_x
_atom_site_fract_y
_atom_site_fract_z
V1	V	-4.033211	-0.105893	-0.290350
O2	O	-4.025834	0.004595	-0.284424
O3	O	-3.979652	-0.209493	-0.288749
O4	O	-3.989920	-0.104480	-0.416807
O5	O	-4.015496	-0.101144	-0.155479
V6	V	-4.516846	-0.092651	-0.274172
O7	O	-4.294225	-0.134938	-0.325839
O8	O	-4.706030	-0.063606	-0.238683
O9	O	-4.347199	0.010949	-0.275773
O10	O	-4.641620	-0.203139	-0.280099
O11	O	-4.651959	-0.097400	-0.409043
O12	O	-4.336931	-0.094064	-0.147715
C13	C	-3.823233	-0.234742	-0.284268
C14	C	-3.860763	-0.319437	-0.283801
C15	C	-4.060499	-0.363116	-0.288235
C16	C	-4.095753	-0.442697	-0.287802
C17	C	-3.931265	-0.478598	-0.282929
C18	C	-3.731514	-0.434914	-0.278497
C19	C	-3.696266	-0.355335	-0.278937
C20	C	-3.873662	-0.755846	-0.276726
C21	C	-3.908926	-0.835431	-0.276284
C22	C	-4.273150	-0.843209	-0.285591
C23	C	-4.237902	-0.763630	-0.286031
C24	C	-4.038158	-0.719953	-0.281604
C25	C	-3.999934	-0.633663	-0.282075
C26	C	-3.969483	-0.564886	-0.282451
C27	C	-3.836329	-0.100787	-0.447617
C28	C	-3.882182	-0.100317	-0.550998
C29	C	-4.050007	-0.098602	-0.929560
C30	C	-4.003305	-0.099080	-0.824232
C31	C	-3.966096	-0.099461	-0.740283
C32	C	-3.919391	-0.099936	-0.634948
C33	C	-4.166960	0.036193	-0.280252
C34	C	-4.108668	0.120888	-0.280725
C35	C	-4.153864	-0.097760	-0.116900
C36	C	-4.087249	-0.098225	-0.013518
H37	H	-3.774971	-0.864659	-0.272321
H38	H	-3.711021	-0.720294	-0.273116
N39	N	-3.554087	-0.473628	-0.273227
H40	H	-3.606716	-0.530668	-0.273611
H41	H	-3.439104	-0.450514	-0.213319
N42	N	-3.480839	-0.308221	-0.274162
H43	H	-3.381982	-0.343038	-0.271007
H44	H	-3.428954	-0.267536	-0.216197
H45	H	-4.194445	-0.333891	-0.292195
N46	N	-4.311270	-0.489783	-0.292677
H47	H	-4.363263	-0.530434	-0.350681
H48	H	-4.409890	-0.454878	-0.295818
N49	N	-4.415317	-0.724910	-0.291297
H50	H	-4.547206	-0.764657	-0.294047
H51	H	-4.437921	-0.699562	-0.349633
H52	H	-4.435796	-0.878780	-0.289197
