data_functionalizedCrystal
_audit_creation_method	'MofGen! by Chris Wilmer'
_symmetry_space_group_name_H-M	'P1'
_symmetry_Int_Tables_number	1
_symmetry_cell_setting	triclinic
loop_
_symmetry_equiv_pos_as_xyz
  x,y,z
_cell_length_a	14.044220
_cell_length_b	15.944551
_cell_length_c	13.101039
_cell_angle_alpha	93.361595
_cell_angle_beta	86.340132
_cell_angle_gamma	88.343808
loop_
_atom_site_label
_atom_site_type_symbol
_atom_site_fract_x
_atom_site_fract_y
_atom_site_fract_z
O1	O	1.262927	0.198266	-0.085109
O2	O	1.596261	0.531599	0.248224
O3	O	1.929594	0.864933	0.581557
O4	O	0.986959	0.190957	-0.085135
O5	O	1.320292	0.524290	0.248198
O6	O	1.653626	0.857624	0.581531
O7	O	1.132479	0.072901	-0.085112
O8	O	1.465812	0.406235	0.248221
O9	O	1.799145	0.739568	0.581554
O10	O	1.117408	0.316322	-0.085132
O11	O	1.450741	0.649655	0.248201
O12	O	1.784074	0.982988	0.581534
O13	O	1.122038	0.081387	0.085316
O14	O	1.455371	0.414720	0.418649
O15	O	1.788705	0.748054	0.751982
O16	O	0.976518	0.199443	0.085293
O17	O	1.309852	0.532776	0.418626
O18	O	1.643185	0.866109	0.751960
O19	O	1.252486	0.206752	0.085319
O20	O	1.585820	0.540085	0.418652
O21	O	1.919153	0.873418	0.751985
Zn22	Zn	1.112845	0.204444	0.112365
Zn23	Zn	1.446178	0.537778	0.445698
Zn24	Zn	1.779511	0.871111	0.779032
Zn25	Zn	1.126601	0.193264	-0.112181
Zn26	Zn	1.459934	0.526598	0.221152
Zn27	Zn	1.793268	0.859931	0.554485
O28	O	1.106967	0.324807	0.085296
O29	O	1.440300	0.658141	0.418629
O30	O	1.773633	0.991474	0.751963
C31	C	0.946424	0.192001	0.000076
C32	C	1.279758	0.525334	0.333409
C33	C	1.613091	0.858668	0.666742
C34	C	0.841198	0.182459	0.000066
C35	C	1.174532	0.515793	0.333399
C36	C	1.507865	0.849126	0.666733
C37	C	0.648535	0.165017	0.000088
C38	C	0.981868	0.498350	0.333421
C39	C	1.315201	0.831684	0.666755
C40	C	0.590906	0.232688	0.000087
C41	C	0.924239	0.566021	0.333420
C42	C	1.257572	0.899354	0.666753
C43	C	0.483701	0.222982	0.000099
C44	C	0.817034	0.556316	0.333432
C45	C	1.150368	0.889649	0.666765
C46	C	0.755749	0.174721	0.000076
C47	C	1.089083	0.508054	0.333409
C48	C	1.422416	0.841387	0.666742
C49	C	1.126633	0.045803	0.000102
C50	C	1.459966	0.379137	0.333435
C51	C	1.793299	0.712470	0.666768
C52	C	1.124757	-0.047583	0.000102
C53	C	1.458090	0.285750	0.333436
C54	C	1.791423	0.619084	0.666769
C55	C	1.030074	-0.269531	0.000079
C56	C	1.363407	0.063803	0.333413
C57	C	1.696740	0.397136	0.666746
C58	C	1.068894	-0.323071	0.084115
C59	C	1.402227	0.010262	0.417448
C60	C	1.735560	0.343595	0.750781
C61	C	1.121364	-0.218563	0.000094
C62	C	1.454697	0.114770	0.333427
C63	C	1.788030	0.448103	0.666761
C64	C	1.079209	-0.331419	-0.083914
C65	C	1.412542	0.001914	0.249419
C66	C	1.745876	0.335247	0.582753
C67	C	1.118080	-0.383723	0.000082
C68	C	1.451413	-0.050389	0.333415
C69	C	1.784746	0.282944	0.666748
C70	C	1.160204	-0.270871	0.084199
C71	C	1.493538	0.062463	0.417532
C72	C	1.826871	0.395796	0.750866
C73	C	1.170512	-0.279217	-0.083905
C74	C	1.503845	0.054116	0.249428
C75	C	1.837178	0.387450	0.582761
C76	C	1.209397	-0.332734	0.000151
C77	C	1.542730	0.000599	0.333484
C78	C	1.876064	0.333932	0.666817
C79	C	1.123253	-0.123419	0.000102
C80	C	1.456586	0.209914	0.333435
C81	C	1.789919	0.543247	0.666769
C82	C	1.116197	-0.478865	0.000081
C83	C	1.449530	-0.145531	0.333414
C84	C	1.782864	0.187802	0.666748
C85	C	1.293021	0.205707	0.000106
C86	C	1.626355	0.539041	0.333439
C87	C	1.959688	0.872374	0.666772
C88	C	1.398248	0.215249	0.000108
C89	C	1.731581	0.548582	0.333442
C90	C	2.064914	0.881916	0.666775
C91	C	1.112813	0.351905	0.000079
C92	C	1.446146	0.685238	0.333413
C93	C	1.779480	1.018572	0.666746
C94	C	1.114689	0.445291	0.000072
C95	C	1.448023	0.778625	0.333406
C96	C	1.781356	1.111958	0.666739
N97	N	1.103463	0.212075	0.265612
N98	N	1.436797	0.545408	0.598945
N99	N	1.770130	0.878741	0.932279
N100	N	1.135990	0.185628	-0.265429
N101	N	1.469323	0.518961	0.067905
N102	N	1.802656	0.852295	0.401238
C103	C	1.090699	0.222464	0.474653
C104	C	1.424033	0.555797	0.807986
C105	C	1.757366	0.889130	1.141319
C106	C	1.148750	0.175242	0.525537
C107	C	1.482084	0.508575	0.858871
C108	C	1.815417	0.841908	1.192204
C109	C	1.141649	0.181022	0.641855
C110	C	1.474982	0.514355	0.975188
C111	C	1.808315	0.847689	1.308521
C112	C	1.097800	0.216684	0.358325
C113	C	1.431134	0.550017	0.691658
C114	C	1.764467	0.883351	1.024991
H115	H	0.622082	0.297911	0.000076
H116	H	0.955415	0.631245	0.333410
H117	H	1.288748	0.964578	0.666743
H118	H	0.617361	0.099799	0.000099
H119	H	0.950694	0.433132	0.333432
H120	H	1.284027	0.766465	0.666765
H121	H	1.035671	0.267230	0.518441
H122	H	1.369004	0.600564	0.851774
H123	H	1.702338	0.933897	1.185108
H124	H	0.954293	-0.241893	0.000156
H125	H	1.287627	0.091440	0.333489
H126	H	1.620960	0.424774	0.666823
Cl127	Cl	1.002563	-0.353121	0.193793
Cl128	Cl	1.335896	-0.019788	0.527126
Cl129	Cl	1.669230	0.313546	0.860460
Cl130	Cl	1.213045	-0.230085	0.194008
Cl131	Cl	1.546378	0.103248	0.527341
Cl132	Cl	1.879711	0.436581	0.860675
Cl133	Cl	1.326484	-0.375162	0.000231
Cl134	Cl	1.659817	-0.041828	0.333564
Cl135	Cl	1.993151	0.291505	0.666897
Cl136	Cl	1.026289	-0.372365	-0.193594
Cl137	Cl	1.359623	-0.039031	0.139739
Cl138	Cl	1.692956	0.294302	0.473072
Cl139	Cl	1.234079	0.106469	0.457929
Cl140	Cl	1.567413	0.439802	0.791263
Cl141	Cl	1.900746	0.773136	1.124596
Cl142	Cl	1.236796	-0.249135	-0.193589
Cl143	Cl	1.570129	0.084199	0.139744
Cl144	Cl	1.903462	0.417532	0.473077
