data_functionalizedCrystal
_audit_creation_method	'MofGen! by Chris Wilmer'
_symmetry_space_group_name_H-M	'P1'
_symmetry_Int_Tables_number	1
_symmetry_cell_setting	triclinic
loop_
_symmetry_equiv_pos_as_xyz
  x,y,z
_cell_length_a	12.759401
_cell_length_b	12.759399
_cell_length_c	12.759393
_cell_angle_alpha	89.969955
_cell_angle_beta	89.981504
_cell_angle_gamma	90.015963
loop_
_atom_site_label
_atom_site_type_symbol
_atom_site_fract_x
_atom_site_fract_y
_atom_site_fract_z
Zn1	Zn	1.606247	-0.418200	-0.593992
Zn2	Zn	1.606138	-0.593919	-0.418317
Zn3	Zn	1.430549	-0.418255	-0.418332
Zn4	Zn	1.430535	-0.593838	-0.593959
O5	O	1.518367	-0.506053	-0.506150
O6	O	1.753254	-0.441520	-0.570697
O7	O	1.582807	-0.570673	-0.271298
O8	O	1.453908	-0.271226	-0.441654
O9	O	1.753174	-0.570620	-0.441629
O10	O	1.582992	-0.271186	-0.570711
O11	O	1.453802	-0.441614	-0.271309
O12	O	1.283526	-0.441535	-0.441621
O13	O	1.453883	-0.570482	-0.740984
O14	O	1.283516	-0.570536	-0.570653
O15	O	1.582978	-0.441442	-0.741009
O16	O	1.582792	-0.740929	-0.441596
O17	O	1.453777	-0.740870	-0.570639
C18	C	1.518300	-0.779020	-0.506135
C19	C	1.518367	-0.895797	-0.506164
C20	C	1.245400	-0.506033	-0.506136
C21	C	1.128623	-0.506050	-0.506155
C22	C	1.451246	-0.950763	-0.438930
C23	C	1.451318	-1.060487	-0.438947
C24	C	1.585633	-1.060269	-0.573441
C25	C	1.585566	-0.950547	-0.573418
C26	C	1.384047	-0.896013	-0.371677
C27	C	1.316920	-0.950979	-0.304438
C28	C	1.316991	-1.060703	-0.304455
C29	C	1.384190	-1.115461	-0.371710
C30	C	1.073783	-0.573328	-0.573231
C31	C	0.964059	-0.573342	-0.573242
C32	C	0.964025	-0.438796	-0.439092
C33	C	1.073747	-0.438778	-0.439087
C34	C	1.128659	-0.640600	-0.640298
C35	C	1.073819	-0.707885	-0.707379
C36	C	0.964095	-0.707898	-0.707390
C37	C	0.909211	-0.640627	-0.640321
C38	C	1.792401	-0.506073	-0.506165
C39	C	1.909177	-0.506082	-0.506171
C40	C	1.518441	-0.505947	-0.780184
C41	C	1.518472	-0.505902	-0.896960
C42	C	1.518464	-0.232019	-0.506188
C43	C	1.518505	-0.115243	-0.506204
C44	C	1.585702	-0.438704	-0.951837
C45	C	1.585727	-0.438666	-1.061561
C46	C	1.451290	-0.573033	-1.061522
C47	C	1.451261	-0.573064	-0.951800
C48	C	1.652913	-0.371541	-0.896997
C49	C	1.720149	-0.304339	-0.951874
C50	C	1.720174	-0.304301	-1.061598
C51	C	1.652963	-0.371465	-1.116445
C52	C	1.518355	-0.506083	-0.233183
C53	C	1.518527	-0.505832	-0.116407
H54	H	1.262215	-0.906389	-0.249675
O55	O	0.910984	-0.773348	-0.772585
C56	C	0.922605	-0.906755	-0.905684
C57	C	0.982880	-0.832697	-0.831889
H58	H	0.980706	-0.954742	-0.953666
H59	H	0.871236	-0.961709	-0.857408
H60	H	0.871237	-0.858577	-0.960664
H61	H	1.034304	-0.880790	-0.776894
H62	H	1.034182	-0.777740	-0.880230
H63	H	0.819867	-0.640634	-0.640345
O64	O	1.383878	-0.789428	-0.371493
C65	C	1.310027	-0.632089	-0.297727
C66	C	1.310130	-0.752793	-0.297806
H67	H	1.250393	-0.602433	-0.238173
H68	H	1.391347	-0.602181	-0.275923
H69	H	1.288217	-0.602293	-0.379093
H70	H	1.331896	-0.782678	-0.216464
H71	H	1.228801	-0.782630	-0.319668
H72	H	1.774862	-0.249649	-0.907210
O73	O	1.650614	-0.897027	-0.638782
C74	C	1.664584	-0.773066	-0.780646
C75	C	1.590796	-0.833596	-0.706675
H76	H	1.616249	-0.721784	-0.835570
H77	H	1.719492	-0.721612	-0.732499
H78	H	1.712644	-0.831058	-0.828678
H79	H	1.542668	-0.775679	-0.658626
H80	H	1.535956	-0.885065	-0.754881
H81	H	1.218002	-0.640599	-0.640294
H82	H	1.652977	-0.371417	-1.205790
O83	O	1.251736	-1.114212	-0.239289
C84	C	1.109923	-1.238171	-0.225074
C85	C	1.183785	-1.177662	-0.298988
H86	H	1.054951	-1.289469	-0.273311
H87	H	1.158152	-1.289608	-0.170198
H88	H	1.061935	-1.180166	-0.176985
H89	H	1.231788	-1.235592	-0.347145
H90	H	1.135495	-1.126210	-0.353794
O91	O	1.785577	-0.238988	-1.114744
C92	C	1.918876	-0.105677	-1.103196
C93	C	1.844871	-0.179606	-1.042881
H94	H	1.966818	-0.057632	-1.045121
H95	H	1.973874	-0.153852	-1.154531
H96	H	1.870660	-0.050762	-1.154601
H97	H	1.893002	-0.234535	-0.991420
H98	H	1.789869	-0.131365	-0.991612
O99	O	1.650800	-1.113620	-0.638740
C100	C	1.710465	-1.282559	-0.698340
C101	C	1.636596	-1.222272	-0.624348
H102	H	1.699023	-1.370414	-0.686714
H103	H	1.691955	-1.261018	-0.783059
H104	H	1.795168	-1.260864	-0.679972
H105	H	1.551869	-1.243934	-0.642622
H106	H	1.655197	-1.243818	-0.539651
H107	H	1.118399	-0.383987	-0.384476
O108	O	1.385847	-0.638201	-0.898450
C109	C	1.243999	-0.652385	-0.774521
C110	C	1.318002	-0.578496	-0.834886
H111	H	1.189142	-0.604144	-0.723099
H112	H	1.195904	-0.700365	-0.832527
H113	H	1.292223	-0.707363	-0.723192
H114	H	1.269858	-0.523454	-0.886217
H115	H	1.366099	-0.530589	-0.776824
H116	H	1.384249	-1.204805	-0.371712
O117	O	1.385915	-0.638312	-1.114635
C118	C	1.252623	-0.771643	-1.103022
C119	C	1.326586	-0.697745	-1.042743
H120	H	1.204652	-0.819730	-1.044923
H121	H	1.197649	-0.723441	-1.154373
H122	H	1.300874	-0.826521	-1.154407
H123	H	1.278420	-0.642853	-0.991301
H124	H	1.381563	-0.746013	-0.991458
H125	H	0.919330	-0.384028	-0.384487
H126	H	1.652903	-0.371567	-0.807654
H127	H	1.118513	-0.762647	-0.761990
