data_functionalizedCrystal
_audit_creation_method	'MofGen! by Chris Wilmer'
_symmetry_space_group_name_H-M	'P1'
_symmetry_Int_Tables_number	1
_symmetry_cell_setting	triclinic
loop_
_symmetry_equiv_pos_as_xyz
  x,y,z
_cell_length_a	25.639242
_cell_length_b	25.639239
_cell_length_c	25.639233
_cell_angle_alpha	89.981253
_cell_angle_beta	90.014348
_cell_angle_gamma	89.969010
loop_
_atom_site_label
_atom_site_type_symbol
_atom_site_fract_x
_atom_site_fract_y
_atom_site_fract_z
Zn1	Zn	0.799225	0.208322	0.295633
Zn2	Zn	0.799148	0.295741	0.208198
Zn3	Zn	0.711801	0.208309	0.208209
Zn4	Zn	0.711746	0.295716	0.295599
O5	O	0.755480	0.252022	0.251910
O6	O	0.872380	0.219933	0.284044
O7	O	0.787553	0.284148	0.135034
O8	O	0.723453	0.135146	0.219825
O9	O	0.872324	0.284160	0.219805
O10	O	0.787683	0.135155	0.284055
O11	O	0.723379	0.219912	0.135042
O12	O	0.638629	0.219889	0.219792
O13	O	0.723360	0.284118	0.368769
O14	O	0.638589	0.284106	0.283998
O15	O	0.787630	0.219910	0.368794
O16	O	0.787499	0.368903	0.219773
O17	O	0.723285	0.368885	0.283986
C18	C	0.619638	0.251994	0.251893
C19	C	0.561524	0.251994	0.251898
C20	C	0.310368	0.218639	0.285420
C21	C	0.364972	0.218634	0.285417
O22	O	0.393240	0.190251	0.313915
N23	N	0.392250	0.252016	0.251916
C24	C	0.364921	0.285409	0.218419
O25	O	0.393137	0.313803	0.189924
C26	C	0.310317	0.285417	0.218425
C27	C	0.283042	0.252028	0.251925
C28	C	0.283092	0.185254	0.318917
C29	C	0.228492	0.185258	0.318919
C30	C	0.201166	0.218648	0.285424
C31	C	0.228442	0.252033	0.251927
C32	C	0.282989	0.318812	0.184932
C33	C	0.228382	0.318817	0.184941
C34	C	0.201107	0.285429	0.218440
C35	C	0.146516	0.285427	0.218434
N36	N	0.119238	0.252045	0.251935
C37	C	0.146563	0.218655	0.285430
C38	C	0.479591	0.285392	0.218410
C39	C	0.534194	0.285382	0.218401
C40	C	0.534241	0.218607	0.285399
C41	C	0.479638	0.218614	0.285405
C42	C	0.452313	0.252010	0.251911
C43	C	0.031898	0.218667	0.285432
C44	C	-0.022707	0.218673	0.285430
C45	C	-0.022750	0.285450	0.218433
C46	C	0.031851	0.285442	0.218433
C47	C	0.059173	0.252049	0.251937
O48	O	0.118213	0.313797	0.189952
O49	O	0.118341	0.190271	0.313925
C50	C	0.755392	0.387865	0.251886
C51	C	0.755403	0.445979	0.251893
C52	C	0.755497	0.252013	0.388283
C53	C	0.755504	0.252009	0.446397
C54	C	0.891853	0.252051	0.251927
C55	C	0.949967	0.252063	0.251934
C56	C	0.755583	0.115649	0.251945
C57	C	0.755626	0.057535	0.251960
C58	C	0.789004	0.806338	0.218531
C59	C	0.789024	0.860943	0.218538
O60	O	0.817502	0.889177	0.190145
N61	N	0.755572	0.888261	0.251944
C62	C	0.722102	0.860972	0.285350
O63	O	0.693651	0.889223	0.313766
C64	C	0.722084	0.806369	0.285345
C65	C	0.755535	0.779053	0.251933
C66	C	0.822452	0.779023	0.185121
C67	C	0.822431	0.724422	0.185114
C68	C	0.788962	0.697137	0.218516
C69	C	0.755514	0.724453	0.251925
C70	C	0.688617	0.779081	0.318753
C71	C	0.688603	0.724474	0.318746
C72	C	0.722053	0.697159	0.285333
C73	C	0.722024	0.642567	0.285320
N74	N	0.755475	0.615249	0.251913
C75	C	0.788944	0.642534	0.218511
C76	C	0.722141	0.975643	0.285358
C77	C	0.722155	1.030245	0.285361
C78	C	0.789078	1.030212	0.218549
C79	C	0.789061	0.975608	0.218544
C80	C	0.755593	0.948324	0.251951
C81	C	0.788897	0.527869	0.218497
C82	C	0.788872	0.473264	0.218491
C83	C	0.721951	0.473302	0.285305
C84	C	0.721974	0.527902	0.285309
C85	C	0.755452	0.555185	0.251904
O86	O	0.693562	0.614299	0.313699
O87	O	0.817396	0.614277	0.190104
C88	C	0.755494	0.251993	0.116067
C89	C	0.755588	0.251850	0.057954
C90	C	0.789012	0.218476	0.806779
C91	C	0.789019	0.218462	0.861383
O92	O	0.817466	0.190013	0.889636
N93	N	0.755562	0.251886	0.888680
C94	C	0.722093	0.285324	0.861369
O95	O	0.693636	0.313752	0.889601
C96	C	0.722084	0.285335	0.806766
C97	C	0.755547	0.251912	0.779472
C98	C	0.822472	0.185056	0.779485
C99	C	0.822466	0.185071	0.724884
C100	C	0.789000	0.218507	0.697578
C101	C	0.755541	0.251927	0.724871
C102	C	0.688613	0.318770	0.779456
C103	C	0.688607	0.318778	0.724849
C104	C	0.722069	0.285355	0.697555
C105	C	0.722070	0.285379	0.642964
N106	N	0.755526	0.251954	0.615667
C107	C	0.788992	0.218518	0.642974
C108	C	0.722113	0.285297	0.976040
C109	C	0.722124	0.285288	1.030642
C110	C	0.789049	0.218425	1.030652
C111	C	0.789041	0.218437	0.976049
C112	C	0.755570	0.251872	0.948743
C113	C	0.788977	0.218553	0.528309
C114	C	0.788970	0.218573	0.473704
C115	C	0.722043	0.285434	0.473698
C116	C	0.722052	0.285416	0.528299
C117	C	0.755521	0.251971	0.555603
O118	O	0.693635	0.313812	0.614677
O119	O	0.817439	0.190090	0.614736
H120	H	0.556396	0.312565	0.191116
H121	H	0.816333	1.052437	0.191353
H122	H	0.206289	0.158072	0.346200
H123	H	0.849723	0.157825	0.801712
H124	H	0.305187	0.346001	0.157653
H125	H	0.694857	0.312526	0.953811
H126	H	-0.044912	0.191482	0.312709
H127	H	0.816288	0.191220	0.953830
H128	H	0.816111	0.451025	0.191281
H129	H	0.206137	0.346013	0.157667
H130	H	0.849670	0.702185	0.157908
H131	H	0.305335	0.158064	0.346196
H132	H	0.457434	0.191426	0.312683
H133	H	0.816159	0.550076	0.191296
H134	H	0.849714	0.157853	0.702667
H135	H	0.694738	0.550144	0.312518
H136	H	0.054059	0.312625	0.191151
H137	H	0.457347	0.312585	0.191130
H138	H	0.661350	0.702262	0.345952
H139	H	0.816299	0.953371	0.191337
H140	H	-0.045008	0.312633	0.191160
H141	H	0.694699	0.451078	0.312499
H142	H	0.849709	0.801232	0.157921
H143	H	0.816297	0.191199	1.052895
H144	H	0.816221	0.191355	0.451484
H145	H	0.816229	0.191318	0.550534
H146	H	0.694912	1.052481	0.312564
H147	H	0.694883	0.953431	0.312561
H148	H	0.694798	0.312658	0.451455
H149	H	0.661376	0.801312	0.345959
H150	H	0.694881	0.312510	1.052860
H151	H	0.661364	0.345986	0.801669
H152	H	0.556499	0.191420	0.312673
H153	H	0.694809	0.312636	0.550523
H154	H	0.054138	0.191475	0.312713
H155	H	0.661345	0.346000	0.702619
