data_functionalizedCrystal
_audit_creation_method	'MofGen! by Chris Wilmer'
_symmetry_space_group_name_H-M	'P1'
_symmetry_Int_Tables_number	1
_symmetry_cell_setting	triclinic
loop_
_symmetry_equiv_pos_as_xyz
  x,y,z
_cell_length_a	14.971506
_cell_length_b	14.971486
_cell_length_c	13.448316
_cell_angle_alpha	89.993189
_cell_angle_beta	89.992937
_cell_angle_gamma	83.618258
loop_
_atom_site_label
_atom_site_type_symbol
_atom_site_fract_x
_atom_site_fract_y
_atom_site_fract_z
O1	O	1.186936	0.116651	-0.082699
O2	O	1.686936	0.616651	0.417301
O3	O	0.926539	0.130591	-0.082700
O4	O	1.426539	0.630591	0.417300
O5	O	1.063717	-0.006579	-0.082692
O6	O	1.563717	0.493421	0.417308
O7	O	1.049758	0.253820	-0.082707
O8	O	1.549758	0.753820	0.417293
O9	O	1.063699	-0.006587	0.082691
O10	O	1.563699	0.493413	0.582691
O11	O	0.926521	0.130582	0.082684
O12	O	1.426521	0.630582	0.582684
O13	O	1.186919	0.116642	0.082684
O14	O	1.686919	0.616642	0.582684
Cu15	Cu	1.056719	0.123612	0.097785
Cu16	Cu	1.556719	0.623612	0.597785
Cu17	Cu	1.056739	0.123622	-0.097800
Cu18	Cu	1.556739	0.623622	0.402200
O19	O	1.049741	0.253812	0.082677
O20	O	1.549741	0.753812	0.582677
C21	C	0.893205	0.129960	-0.000008
C22	C	1.393205	0.629960	0.499992
C23	C	0.793909	0.128082	-0.000008
C24	C	1.293909	0.628082	0.499992
C25	C	0.355627	0.201500	-0.000022
C26	C	0.855627	0.701500	0.499978
C27	C	0.448927	0.203258	-0.000027
C28	C	0.948927	0.703258	0.499973
C29	C	0.506147	0.122665	-0.000018
C30	C	1.006147	0.622665	0.499982
C31	C	0.470062	0.040310	-0.000015
C32	C	0.970062	0.540310	0.499985
C33	C	0.376764	0.038553	-0.000017
C34	C	0.876764	0.538553	0.499983
C35	C	0.664525	0.043977	-0.000007
C36	C	1.164525	0.543977	0.499993
C37	C	0.757831	0.045733	-0.000002
C38	C	1.257831	0.545733	0.499998
C39	C	0.736689	0.208681	-0.000016
C40	C	1.236689	0.708681	0.499984
C41	C	0.643390	0.206924	-0.000018
C42	C	1.143390	0.706924	0.499982
C43	C	0.607312	0.124569	-0.000013
C44	C	1.107312	0.624569	0.499987
C45	C	1.063084	-0.039908	-0.000001
C46	C	1.563084	0.460092	0.499999
C47	C	1.061213	-0.139205	-0.000002
C48	C	1.561213	0.360795	0.499998
C49	C	1.141802	-0.196424	-0.000001
C50	C	1.641802	0.303576	0.499999
C51	C	1.140038	-0.289724	-0.000011
C52	C	1.640038	0.210276	0.499989
C53	C	1.057686	-0.325802	-0.000015
C54	C	1.557686	0.174198	0.499985
C55	C	0.977091	-0.268575	-0.000019
C56	C	1.477091	0.231425	0.499981
C57	C	0.978855	-0.175278	-0.000016
C58	C	1.478855	0.324722	0.499984
C59	C	0.973420	-0.463038	-0.000022
C60	C	1.473420	0.036962	0.499978
C61	C	0.971656	-0.556342	-0.000023
C62	C	1.471656	-0.056342	0.499977
C63	C	1.134603	-0.577485	-0.000017
C64	C	1.634603	-0.077485	0.499983
C65	C	1.136367	-0.484187	-0.000015
C66	C	1.636367	0.015813	0.499985
C67	C	1.055772	-0.426966	-0.000017
C68	C	1.555772	0.073034	0.499983
C69	C	1.220252	0.117273	-0.000010
C70	C	1.720252	0.617273	0.499990
C71	C	1.319548	0.119151	-0.000016
C72	C	1.819548	0.619151	0.499984
C73	C	1.050374	0.287141	-0.000017
C74	C	1.550374	0.787141	0.499983
C75	C	1.052244	0.386438	-0.000022
C76	C	1.552244	0.886438	0.499978
N77	N	1.056711	0.123604	0.235349
N78	N	1.556711	0.623604	0.735349
N79	N	1.056754	0.123622	-0.235365
N80	N	1.556754	0.623622	0.264635
C81	C	1.117472	0.062890	0.287393
C82	C	1.617472	0.562890	0.787393
C83	C	1.117478	0.062890	0.391496
C84	C	1.617478	0.562890	0.891496
C85	C	1.056725	0.123608	0.443554
C86	C	1.556725	0.623608	0.943554
C87	C	0.995958	0.184324	0.391503
C88	C	1.495958	0.684324	0.891503
C89	C	0.995948	0.184320	0.287402
C90	C	1.495948	0.684320	0.787402
C91	C	0.995982	0.184330	0.608483
C92	C	1.495982	0.684330	1.108483
C93	C	0.995992	0.184336	0.712592
C94	C	1.495992	0.684336	1.212592
C95	C	1.117512	0.062900	0.712578
C96	C	1.617512	0.562900	1.212578
C97	C	1.117503	0.062896	0.608476
C98	C	1.617503	0.562896	1.108476
C99	C	1.056736	0.123614	0.556433
C100	C	1.556736	0.623614	1.056433
H101	H	0.766067	0.275738	-0.000019
H102	H	1.266067	0.775738	0.499981
H103	H	0.913232	-0.128690	-0.000017
H104	H	1.413232	0.371310	0.499983
H105	H	1.205662	-0.336309	-0.000008
H106	H	1.705662	0.163691	0.499992
N107	N	1.230628	-0.157520	0.000010
N108	N	1.730628	0.342480	0.500010
H109	H	1.235002	-0.119271	-0.061294
H110	H	1.735002	0.380729	0.438706
H111	H	1.234928	-0.119337	0.061362
H112	H	1.734928	0.380663	0.561362
N113	N	0.293904	0.288419	-0.000032
N114	N	0.793904	0.788419	0.499968
H115	H	0.254718	0.291316	0.061276
H116	H	0.754718	0.791316	0.561276
H117	H	0.330973	0.340810	-0.000076
H118	H	0.830973	0.840810	0.499924
N119	N	0.930476	0.249819	0.768756
N120	N	1.430476	0.749819	1.268756
H121	H	0.940834	0.313322	0.750625
H122	H	1.440834	0.813322	1.250625
H123	H	0.867010	0.239330	0.750650
H124	H	1.367010	0.739330	1.250650
N125	N	0.886501	-0.401310	-0.000000
N126	N	1.386501	0.098690	0.500000
H127	H	0.883600	-0.362114	-0.061301
H128	H	1.383600	0.137886	0.438699
H129	H	0.834106	-0.438374	0.000045
H130	H	1.334106	0.061626	0.500045
H131	H	0.804417	-0.019892	-0.000003
H132	H	1.304417	0.480108	0.499997
H133	H	0.596803	0.272550	-0.000019
H134	H	1.096803	0.772550	0.499981
H135	H	1.203426	-0.454815	-0.000004
H136	H	1.703426	0.045185	0.499996
H137	H	1.166953	0.013451	0.433870
H138	H	1.666953	0.513451	0.933870
H139	H	1.166976	0.013459	0.566091
H140	H	1.666976	0.513459	1.066091
N141	N	0.882836	-0.595259	-0.000035
N142	N	1.382836	-0.095259	0.499965
H143	H	0.832046	-0.544855	-0.000046
H144	H	1.332046	-0.044855	0.499954
H145	H	0.878575	-0.633503	-0.061347
H146	H	1.378575	-0.133503	0.438653
H147	H	1.166947	0.013451	0.245014
H148	H	1.666947	0.513451	0.745014
H149	H	0.946496	0.233770	0.566113
H150	H	1.446496	0.733770	1.066113
N151	N	0.625621	-0.044854	0.000009
N152	N	1.125621	0.455146	0.500009
H153	H	0.587377	-0.049210	0.061319
H154	H	1.087377	0.450790	0.561319
H155	H	0.587435	-0.049170	-0.061337
H156	H	1.087435	0.450830	0.438663
H157	H	1.166990	0.013461	0.754958
H158	H	1.666990	0.513461	1.254958
N159	N	0.531780	-0.046613	-0.000001
N160	N	1.031780	0.453387	0.499999
H161	H	0.520151	-0.082536	0.061310
H162	H	1.020151	0.417464	0.561310
H163	H	0.520146	-0.082467	-0.061346
H164	H	1.020146	0.417533	0.438654
N165	N	0.930429	0.249807	0.447653
N166	N	1.430429	0.749807	0.947653
H167	H	0.964651	0.289473	0.490827
H168	H	1.464651	0.789473	0.990827
H169	H	0.891947	0.288207	0.398825
H170	H	1.391947	0.788207	0.898825
H171	H	0.946469	0.233758	0.245029
H172	H	1.446469	0.733758	0.745029
H173	H	0.347391	-0.028503	-0.000014
H174	H	0.847391	0.471497	0.499986
N175	N	0.487842	0.292076	-0.000050
N176	N	0.987842	0.792076	0.499950
H177	H	0.437436	0.342864	-0.000054
H178	H	0.937436	0.842864	0.499946
H179	H	0.526090	0.296360	0.061254
H180	H	1.026090	0.796360	0.561254
H181	H	1.200227	-0.624078	-0.000019
H182	H	1.700227	-0.124078	0.499981
H183	H	0.910038	-0.297958	-0.000028
H184	H	1.410038	0.202042	0.499972
