data_functionalizedCrystal
_audit_creation_method	'MofGen! by Chris Wilmer'
_symmetry_space_group_name_H-M	'P1'
_symmetry_Int_Tables_number	1
_symmetry_cell_setting	triclinic
loop_
_symmetry_equiv_pos_as_xyz
  x,y,z
_cell_length_a	11.792241
_cell_length_b	10.540510
_cell_length_c	10.268362
_cell_angle_alpha	89.997199
_cell_angle_beta	89.999626
_cell_angle_gamma	84.353363
loop_
_atom_site_label
_atom_site_type_symbol
_atom_site_fract_x
_atom_site_fract_y
_atom_site_fract_z
O1	O	1.507345	0.173994	-0.108166
O2	O	1.177049	0.191926	-0.108196
O3	O	1.349750	-0.001773	-0.108180
O4	O	1.334644	0.367694	-0.108182
O5	O	1.349735	-0.001781	0.108421
O6	O	1.177034	0.191918	0.108405
O7	O	1.507330	0.173986	0.108435
Cu8	Cu	1.342181	0.182952	0.128197
Cu9	Cu	1.342199	0.182961	-0.127958
O10	O	1.334629	0.367686	0.108419
C11	C	1.134748	0.190796	0.000101
C12	C	1.008726	0.187424	0.000089
C13	C	0.777998	0.181225	0.000127
C14	C	0.906392	0.184670	0.000106
C15	C	1.348617	-0.049077	0.000118
C16	C	1.345249	-0.190016	0.000110
C17	C	1.465224	-0.407862	0.000617
C18	C	1.468816	-0.261278	0.000122
C19	C	1.282003	-0.234564	-0.123583
C20	C	1.279286	-0.381316	-0.123680
C21	C	1.276695	-0.381126	0.122635
C22	C	1.282556	-0.234804	0.124264
C23	C	1.549631	0.175117	0.000135
C24	C	1.675654	0.178488	0.000138
C25	C	1.335762	0.414990	0.000118
C26	C	1.339130	0.555929	0.000118
N27	N	1.342176	0.182944	0.308363
N28	N	1.342212	0.182959	-0.308124
C29	C	1.342193	0.182959	0.574034
C30	C	1.342180	0.182954	0.426196
H31	H	1.518303	-0.232099	0.088788
H32	H	1.315957	-0.423439	0.216394
C33	C	1.530258	-0.464766	0.120451
N34	N	1.579243	-0.507636	0.210714
C35	C	1.529895	-0.466837	-0.118535
N36	N	1.578602	-0.511258	-0.208282
C37	C	1.536070	-0.223112	-0.119864
N38	N	1.586726	-0.194367	-0.210245
C39	C	1.337711	-0.435836	-0.248571
N40	N	1.381725	-0.476896	-0.342637
H41	H	1.186865	-0.404010	-0.129292
C42	C	1.151366	-0.410661	0.123764
N43	N	1.056973	-0.432920	0.124608
C44	C	1.159112	-0.170135	-0.129819
N45	N	1.066551	-0.121602	-0.134515
H46	H	1.325938	-0.203847	-0.215627
H47	H	1.328576	-0.206345	0.215771
C48	C	1.160676	-0.168126	0.134342
N49	N	1.068870	-0.117906	0.141922
