data_functionalizedCrystal
_audit_creation_method	'MofGen! by Chris Wilmer'
_symmetry_space_group_name_H-M	'P1'
_symmetry_Int_Tables_number	1
_symmetry_cell_setting	triclinic
loop_
_symmetry_equiv_pos_as_xyz
  x,y,z
_cell_length_a	10.654550
_cell_length_b	27.732048
_cell_length_c	9.730223
_cell_angle_alpha	89.993758
_cell_angle_beta	89.996251
_cell_angle_gamma	83.563778
loop_
_atom_site_label
_atom_site_type_symbol
_atom_site_fract_x
_atom_site_fract_y
_atom_site_fract_z
O1	O	1.664980	0.067884	-0.114419
O2	O	1.299230	0.074351	-0.114399
O3	O	1.493465	0.000792	-0.114384
O4	O	1.470746	0.141444	-0.114435
O5	O	1.493462	0.000793	0.114196
O6	O	1.299228	0.074353	0.114181
O7	O	1.664978	0.067886	0.114161
Zn8	Zn	1.482102	0.071120	0.150463
Zn9	Zn	1.482105	0.071117	-0.150701
O10	O	1.470743	0.141445	0.114145
C11	C	1.252451	0.073878	-0.000106
C12	C	1.113067	0.072457	-0.000097
C13	C	1.031761	0.115768	-0.000133
C14	C	0.900796	0.114430	-0.000156
C15	C	0.932457	0.026466	-0.000114
C16	C	1.063419	0.027805	-0.000080
C17	C	1.081409	0.160420	-0.000149
C18	C	1.000101	0.203734	-0.000187
C19	C	0.869136	0.202396	-0.000210
C20	C	0.819479	0.157744	-0.000196
C21	C	1.492987	-0.017217	-0.000090
C22	C	1.491551	-0.070881	-0.000078
C23	C	1.597290	-0.409038	-0.000155
C24	C	1.591962	-0.610731	-0.000174
O25	O	1.688653	-0.641384	-0.000239
N26	N	1.476789	-0.630572	-0.000166
C27	C	1.362940	-0.599986	-0.000163
O28	O	1.264856	-0.621490	-0.000171
C29	C	1.368269	-0.398294	-0.000154
C30	C	1.483449	-0.378456	-0.000147
C31	C	1.712461	-0.389199	-0.000150
C32	C	1.713792	-0.338779	-0.000138
C33	C	1.599951	-0.308197	-0.000131
C34	C	1.484780	-0.328036	-0.000135
C35	C	1.254421	-0.367709	-0.000160
C36	C	1.255764	-0.317284	-0.000161
C37	C	1.370944	-0.297446	-0.000155
C38	C	1.372271	-0.247034	-0.000115
N39	N	1.487444	-0.227193	-0.000123
C40	C	1.601284	-0.257775	-0.000131
C41	C	1.360150	-0.705877	-0.000165
C42	C	1.358817	-0.756300	-0.000164
C43	C	1.587840	-0.767041	-0.000178
C44	C	1.589171	-0.716618	-0.000169
C45	C	1.475323	-0.686036	-0.000172
C46	C	1.604070	-0.151888	-0.000104
C47	C	1.605391	-0.101463	-0.000086
C48	C	1.376369	-0.090726	-0.000080
C49	C	1.375047	-0.141147	-0.000090
C50	C	1.488908	-0.171727	-0.000107
O51	O	1.275631	-0.216352	-0.000065
O52	O	1.699354	-0.236261	-0.000153
C53	C	1.595959	-0.459458	-0.000167
C54	C	1.480788	-0.479296	-0.000172
C55	C	1.366948	-0.448715	-0.000164
C56	C	1.479455	-0.529719	-0.000172
C57	C	1.593296	-0.560301	-0.000179
C58	C	1.708469	-0.540460	-0.000187
C59	C	1.709800	-0.490040	-0.000175
C60	C	1.251774	-0.468556	-0.000157
C61	C	1.250453	-0.518976	-0.000167
C62	C	1.364293	-0.549558	-0.000175
C63	C	1.711757	0.068360	-0.000135
C64	C	1.851141	0.069780	-0.000153
C65	C	1.471221	0.159454	-0.000152
C66	C	1.472657	0.213118	-0.000172
N67	N	1.482110	0.071121	0.355999
N68	N	1.482108	0.071112	-0.356238
C69	C	1.568138	0.038560	0.427932
C70	C	1.568135	0.038554	0.571815
C71	C	1.396071	0.103675	0.571820
C72	C	1.396069	0.103678	0.427939
C73	C	1.654179	0.006003	0.355992
C74	C	1.740215	-0.026560	0.427925
C75	C	1.740212	-0.026566	0.571808
C76	C	1.654173	0.005991	0.643758
H77	H	1.699189	-0.085314	-0.000077
H78	H	1.326022	0.130182	0.630411
O79	O	1.151127	-0.018908	-0.000032
H80	H	1.211589	-0.020402	-0.093171
H81	H	1.654169	0.005981	0.760917
H82	H	0.802938	0.237665	-0.000226
H83	H	1.696787	-0.176781	-0.000123
H84	H	1.160629	-0.383852	-0.000173
H85	H	0.712838	0.156658	-0.000193
H86	H	1.682961	-0.700469	-0.000165
O87	O	0.878908	-0.021693	-0.000110
H88	H	0.774182	-0.015347	-0.000152
O89	O	1.838022	-0.317384	-0.000171
H90	H	1.916947	-0.347127	-0.000201
O91	O	1.835256	-0.422181	-0.000139
H92	H	1.915552	-0.399906	-0.000122
H93	H	1.267435	-0.680982	-0.000167
O94	O	1.253592	-0.057734	-0.000069
H95	H	1.173271	-0.079996	-0.000062
H96	H	1.680533	-0.791950	-0.000184
H97	H	1.265026	-0.772447	-0.000146
H98	H	1.163052	-0.292386	-0.000166
H99	H	1.040540	0.240088	-0.000186
H100	H	1.326015	0.130192	0.369371
O101	O	1.250822	-0.162549	-0.000092
H102	H	1.171887	-0.132810	-0.000091
H103	H	1.156652	-0.535123	-0.000160
O104	O	1.833015	-0.061684	0.649389
H105	H	1.817776	-0.099421	0.621767
O106	O	1.834030	-0.468645	-0.000196
H107	H	1.912955	-0.498388	-0.000220
H108	H	1.801162	-0.565369	-0.000187
H109	H	1.159070	-0.443660	-0.000153
H110	H	1.654192	0.006006	0.238835
O111	O	1.832984	-0.061687	0.350335
H112	H	1.818533	-0.056214	0.238200
H113	H	1.188045	0.161514	-0.000137
