data_functionalizedCrystal
_audit_creation_method	'MofGen! by Chris Wilmer'
_symmetry_space_group_name_H-M	'P1'
_symmetry_Int_Tables_number	1
_symmetry_cell_setting	triclinic
loop_
_symmetry_equiv_pos_as_xyz
  x,y,z
_cell_length_a	18.215407
_cell_length_b	18.101395
_cell_length_c	18.215399
_cell_angle_alpha	89.971163
_cell_angle_beta	89.983176
_cell_angle_gamma	90.031552
loop_
_atom_site_label
_atom_site_type_symbol
_atom_site_fract_x
_atom_site_fract_y
_atom_site_fract_z
Zn1	Zn	1.125018	-0.294811	-0.416124
Zn2	Zn	1.458352	0.038523	-0.082790
Zn3	Zn	1.791685	0.371856	0.250543
Zn4	Zn	1.124920	-0.418662	-0.293061
Zn5	Zn	1.458253	-0.085329	0.040273
Zn6	Zn	1.791586	0.248004	0.373606
Zn7	Zn	1.001957	-0.294840	-0.293071
Zn8	Zn	1.335291	0.038493	0.040262
Zn9	Zn	1.668624	0.371826	0.373596
Zn10	Zn	1.001903	-0.418616	-0.416086
Zn11	Zn	1.335237	-0.085283	-0.082752
Zn12	Zn	1.668570	0.248051	0.250581
O13	O	1.063450	-0.356732	-0.354585
O14	O	1.396783	-0.023399	-0.021252
O15	O	1.730116	0.309934	0.312081
O16	O	1.227989	-0.311247	-0.399811
O17	O	1.561323	0.022086	-0.066477
O18	O	1.894656	0.355420	0.266856
O19	O	1.108590	-0.402269	-0.190078
O20	O	1.441923	-0.068936	0.143256
O21	O	1.775257	0.264398	0.476589
O22	O	1.018345	-0.191203	-0.309415
O23	O	1.351679	0.142130	0.023919
O24	O	1.685012	0.475463	0.357252
O25	O	1.227917	-0.402240	-0.309397
O26	O	1.561250	-0.068907	0.023937
O27	O	1.894584	0.264426	0.357270
O28	O	1.108758	-0.191182	-0.399821
O29	O	1.442091	0.142152	-0.066487
O30	O	1.775424	0.475485	0.266846
O31	O	1.018250	-0.311297	-0.190085
O32	O	1.351583	0.022036	0.143248
O33	O	1.684917	0.355369	0.476581
O34	O	0.898966	-0.311252	-0.309378
O35	O	1.232299	0.022081	0.023956
O36	O	1.565633	0.355414	0.357289
O37	O	1.018254	-0.402161	-0.519075
O38	O	1.351587	-0.068828	-0.185742
O39	O	1.684920	0.264505	0.147592
O40	O	0.898926	-0.402190	-0.399756
O41	O	1.232260	-0.068856	-0.066422
O42	O	1.565593	0.264477	0.266911
O43	O	1.108706	-0.311202	-0.519103
O44	O	1.442039	0.022131	-0.185770
O45	O	1.775372	0.355465	0.147564
O46	O	1.108538	-0.522289	-0.309360
O47	O	1.441871	-0.188956	0.023974
O48	O	1.775204	0.144378	0.357307
O49	O	1.018158	-0.522255	-0.399746
O50	O	1.351491	-0.188922	-0.066412
O51	O	1.684825	0.144412	0.266921
C52	C	0.872243	-0.356720	-0.354564
C53	C	1.205577	-0.023386	-0.021231
C54	C	1.538910	0.309947	0.312103
C55	C	0.790445	-0.356732	-0.354573
C56	C	1.123778	-0.023399	-0.021239
C57	C	1.457111	0.309935	0.312094
C58	C	0.602249	-0.404158	-0.401573
C59	C	0.935583	-0.070824	-0.068240
C60	C	1.268916	0.262509	0.265093
C61	C	0.525391	-0.404160	-0.401583
C62	C	0.858724	-0.070827	-0.068249
C63	C	1.192057	0.262507	0.265084
C64	C	0.525402	-0.309320	-0.307613
C65	C	0.858736	0.024013	0.025720
C66	C	1.192069	0.357346	0.359054
C67	C	0.602260	-0.309315	-0.307608
C68	C	0.935593	0.024018	0.025725
C69	C	1.268926	0.357352	0.359059
C70	C	0.640681	-0.356738	-0.354587
C71	C	0.974014	-0.023404	-0.021254
C72	C	1.307348	0.309929	0.312079
C73	C	0.486965	-0.356746	-0.354601
C74	C	0.820298	-0.023412	-0.021268
C75	C	1.153632	0.309921	0.312065
C76	C	0.403631	-0.356748	-0.354611
C77	C	0.736965	-0.023414	-0.021278
C78	C	1.070298	0.309919	0.312056
C79	C	0.724020	-0.356735	-0.354579
C80	C	1.057353	-0.023401	-0.021245
C81	C	1.390687	0.309932	0.312088
C82	C	1.063351	-0.549143	-0.354564
C83	C	1.396685	-0.215810	-0.021230
C84	C	1.730018	0.117524	0.312103
C85	C	1.063376	-0.631457	-0.354579
C86	C	1.396710	-0.298124	-0.021246
C87	C	1.730043	0.035210	0.312088
C88	C	1.063538	-0.930548	-0.354619
C89	C	1.396871	-0.597215	-0.021285
C90	C	1.730205	-0.263881	0.312048
C91	C	1.006805	-0.899232	-0.411628
C92	C	1.340139	-0.565899	-0.078295
C93	C	1.673472	-0.232565	0.255039
C94	C	1.006536	-0.813614	-0.411450
C95	C	1.339869	-0.480281	-0.078116
C96	C	1.673202	-0.146947	0.255217
C97	C	1.063458	-0.782165	-0.354600
C98	C	1.396791	-0.448832	-0.021266
C99	C	1.730124	-0.115499	0.312067
C100	C	1.042464	-0.813319	-0.277038
C101	C	1.375797	-0.479986	0.056295
C102	C	1.709131	-0.146652	0.389628
C103	C	1.042098	-0.898964	-0.277380
C104	C	1.375432	-0.565631	0.055954
C105	C	1.708765	-0.232297	0.389287
C106	C	1.141388	-0.898890	-0.374487
C107	C	1.474722	-0.565557	-0.041154
C108	C	1.808055	-0.232224	0.292179
C109	C	1.140931	-0.813239	-0.376188
C110	C	1.474264	-0.479906	-0.042855
C111	C	1.807597	-0.146573	0.290478
C112	C	1.063414	-0.698306	-0.354584
C113	C	1.396747	-0.364973	-0.021251
C114	C	1.730080	-0.031639	0.312083
C115	C	1.063580	-1.014407	-0.354629
C116	C	1.396913	-0.681074	-0.021296
C117	C	1.730247	-0.347741	0.312038
C118	C	1.255403	-0.356746	-0.354607
C119	C	1.588736	-0.023412	-0.021273
C120	C	1.922069	0.309921	0.312060
C121	C	1.337201	-0.356751	-0.354616
C122	C	1.670535	-0.023418	-0.021283
C123	C	2.003868	0.309915	0.312051
C124	C	1.063484	-0.356673	-0.546538
C125	C	1.396818	-0.023340	-0.213205
C126	C	1.730151	0.309994	0.120128
C127	C	1.063499	-0.356648	-0.628337
C128	C	1.396833	-0.023315	-0.295004
C129	C	1.730166	0.310019	0.038330
C130	C	1.063569	-0.163570	-0.354623
C131	C	1.396902	0.169763	-0.021290
C132	C	1.730235	0.503096	0.312044
C133	C	1.063619	-0.081256	-0.354639
C134	C	1.396953	0.252077	-0.021306
C135	C	1.730286	0.585410	0.312028
C136	C	1.016499	-0.309247	-0.816536
C137	C	1.349832	0.024086	-0.483203
C138	C	1.683166	0.357420	-0.149869
C139	C	1.016512	-0.309232	-0.893395
C140	C	1.349845	0.024101	-0.560061
C141	C	1.683178	0.357435	-0.226728
C142	C	1.110588	-0.403961	-0.893376
C143	C	1.443921	-0.070627	-0.560043
C144	C	1.777254	0.262706	-0.226710
C145	C	1.110571	-0.403979	-0.816519
C146	C	1.443904	-0.070645	-0.483185
C147	C	1.777237	0.262688	-0.149852
C148	C	1.063527	-0.356618	-0.778101
C149	C	1.396861	-0.023284	-0.444767
C150	C	1.730194	0.310049	-0.111434
C151	C	1.063557	-0.356585	-0.931817
C152	C	1.396891	-0.023251	-0.598484
C153	C	1.730224	0.310082	-0.265150
C154	C	1.063571	-0.356569	-1.015151
C155	C	1.396905	-0.023235	-0.681817
C156	C	1.730238	0.310098	-0.348484
C157	C	1.063512	-0.356634	-0.694762
C158	C	1.396845	-0.023301	-0.361428
C159	C	1.730179	0.310032	-0.028095
C160	C	1.063457	-0.356738	-0.163379
C161	C	1.396791	-0.023404	0.169954
C162	C	1.730124	0.309929	0.503288
C163	C	1.063585	-0.356554	-0.081580
C164	C	1.396919	-0.023221	0.251753
C165	C	1.730252	0.310112	0.585086
H166	H	0.633552	-0.270695	-0.269346
H167	H	0.966885	0.062638	0.063987
H168	H	1.300218	0.395971	0.397320
F169	F	1.023701	-0.786077	-0.486621
F170	F	1.357035	-0.452744	-0.153287
F171	F	1.690368	-0.119411	0.180046
H172	H	1.019809	-0.919778	-0.469325
H173	H	1.353143	-0.586445	-0.135992
H174	H	1.686476	-0.253111	0.197342
F175	F	0.931841	-0.927461	-0.394655
F176	F	1.265175	-0.594128	-0.061322
F177	F	1.598508	-0.260794	0.272012
F178	F	0.643138	-0.454627	-0.451575
F179	F	0.976471	-0.121294	-0.118241
F180	F	1.309804	0.212039	0.215092
F181	F	0.484492	-0.454630	-0.451593
F182	F	0.817825	-0.121296	-0.118260
F183	F	1.151159	0.212037	0.215073
F184	F	1.160625	-0.454402	-0.775611
F185	F	1.493958	-0.121069	-0.442277
F186	F	1.827291	0.212264	-0.108944
F187	F	0.931111	-0.786917	-0.394251
F188	F	1.264444	-0.453584	-0.060917
F189	F	1.597777	-0.120250	0.272416
F190	F	0.966430	-0.258843	-0.775651
F191	F	1.299763	0.074490	-0.442318
F192	F	1.633096	0.407823	-0.108985
F193	F	0.967715	-0.925165	-0.255381
F194	F	1.301049	-0.591832	0.077953
F195	F	1.634382	-0.258499	0.411286
H196	H	1.148889	-0.442520	-0.924666
H197	H	1.482222	-0.109186	-0.591332
H198	H	1.815556	0.224147	-0.257999
F199	F	1.093759	-0.926047	-0.219963
F200	F	1.427092	-0.592713	0.113371
F201	F	1.760426	-0.259380	0.446704
F202	F	0.966450	-0.258822	-0.934297
F203	F	1.299783	0.074512	-0.600964
F204	F	1.633116	0.407845	-0.267631
F205	F	1.094774	-0.786697	-0.220003
F206	F	1.428107	-0.453363	0.113331
F207	F	1.761440	-0.120030	0.446664
H208	H	0.986159	-0.791935	-0.259906
H209	H	1.319492	-0.458602	0.073427
H210	H	1.652825	-0.125268	0.406761
F211	F	0.484505	-0.258853	-0.257617
F212	F	0.817838	0.074480	0.075717
F213	F	1.151172	0.407813	0.409050
H214	H	1.160529	-0.920437	-0.430081
H215	H	1.493863	-0.587103	-0.096748
H216	H	1.827196	-0.253770	0.236586
F217	F	1.161626	-0.786622	-0.450797
F218	F	1.494959	-0.453289	-0.117464
F219	F	1.828292	-0.119956	0.215870
F220	F	1.199104	-0.785248	-0.325876
F221	F	1.532438	-0.451915	0.007458
F222	F	1.865771	-0.118581	0.340791
F223	F	1.196639	-0.925371	-0.320224
F224	F	1.529972	-0.592037	0.013109
F225	F	1.863305	-0.258704	0.346442
