data_functionalizedCrystal
_audit_creation_method	'MofGen! by Chris Wilmer'
_symmetry_space_group_name_H-M	'P1'
_symmetry_Int_Tables_number	1
_symmetry_cell_setting	triclinic
loop_
_symmetry_equiv_pos_as_xyz
  x,y,z
_cell_length_a	15.298206
_cell_length_b	15.299816
_cell_length_c	17.077396
_cell_angle_alpha	99.656369
_cell_angle_beta	99.671869
_cell_angle_gamma	69.257501
loop_
_atom_site_label
_atom_site_type_symbol
_atom_site_fract_x
_atom_site_fract_y
_atom_site_fract_z
Zn1	Zn	1.485537	-0.615789	-0.312554
Zn2	Zn	1.985537	-0.115789	0.187446
Zn3	Zn	1.512327	-0.771249	-0.200683
Zn4	Zn	2.012327	-0.271249	0.299317
Zn5	Zn	1.330051	-0.588949	-0.200714
Zn6	Zn	1.830051	-0.088949	0.299286
Zn7	Zn	1.356899	-0.744334	-0.351299
Zn8	Zn	1.856899	-0.244334	0.148701
O9	O	1.421204	-0.680080	-0.266312
O10	O	1.921204	-0.180080	0.233688
O11	O	1.619209	-0.658908	-0.281486
O12	O	2.119209	-0.158908	0.218514
O13	O	1.488124	-0.747098	-0.090849
O14	O	1.988124	-0.247098	0.409151
O15	O	1.328229	-0.462420	-0.199347
O16	O	1.828229	0.037580	0.300653
O17	O	1.638892	-0.773123	-0.199295
O18	O	2.138892	-0.273123	0.300705
O19	O	1.442464	-0.482139	-0.281515
O20	O	1.942464	0.017861	0.218485
O21	O	1.354207	-0.613163	-0.090871
O22	O	1.854207	-0.113163	0.409129
O23	O	1.203494	-0.587065	-0.236917
O24	O	1.703494	-0.087065	0.263083
O25	O	1.373987	-0.727251	-0.455998
O26	O	1.873987	-0.227251	0.044002
O27	O	1.223219	-0.701226	-0.347551
O28	O	1.723219	-0.201226	0.152449
O29	O	1.468496	-0.632809	-0.427532
O30	O	1.968496	-0.132809	0.072468
O31	O	1.514157	-0.897769	-0.236865
O32	O	2.014157	-0.397769	0.263135
O33	O	1.399965	-0.877994	-0.347522
O34	O	1.899965	-0.377994	0.152478
C35	C	1.179619	-0.638313	-0.296442
C36	C	1.679619	-0.138313	0.203558
C37	C	1.076271	-0.620467	-0.309353
C38	C	1.576271	-0.120467	0.190647
C39	C	1.017493	-0.552709	-0.358305
C40	C	1.517493	-0.052709	0.141695
C41	C	0.920392	-0.535933	-0.370436
C42	C	1.420392	-0.035933	0.129564
C43	C	0.882060	-0.586918	-0.333622
C44	C	1.382060	-0.086918	0.166378
C45	C	0.940839	-0.654683	-0.284675
C46	C	1.440839	-0.154683	0.215325
C47	C	1.037949	-0.671455	-0.272537
C48	C	1.537949	-0.171455	0.227463
C49	C	0.902516	-0.705665	-0.247855
C50	C	1.402516	-0.205665	0.252145
C51	C	0.961295	-0.773429	-0.198907
C52	C	1.461295	-0.273429	0.301093
C53	C	1.058395	-0.790199	-0.186772
C54	C	1.558395	-0.290199	0.313228
C55	C	1.096727	-0.739213	-0.223585
C56	C	1.596727	-0.239213	0.276415
C57	C	0.805406	-0.688892	-0.259992
C58	C	1.305406	-0.188892	0.240008
C59	C	0.825861	-0.807638	-0.174224
C60	C	1.325861	-0.307638	0.325776
C61	C	0.922963	-0.824415	-0.162093
C62	C	1.422963	-0.324415	0.337907
C63	C	1.462906	-0.921617	-0.296408
C64	C	1.962906	-0.421617	0.203592
C65	C	1.480832	-1.024961	-0.309299
C66	C	1.980832	-0.524961	0.190701
C67	C	1.293695	-1.275546	-0.174370
C68	C	1.793695	-0.775546	0.325630
C69	C	1.276848	-1.178448	-0.162261
C70	C	1.776848	-0.678448	0.337739
C71	C	1.327843	-1.140072	-0.199019
C72	C	1.827843	-0.640072	0.300981
C73	C	1.395687	-1.198803	-0.247889
C74	C	1.895687	-0.698803	0.252111
C75	C	1.412531	-1.295910	-0.260004
C76	C	1.912531	-0.795910	0.239996
C77	C	1.446678	-1.160435	-0.284654
C78	C	1.946678	-0.660435	0.215346
C79	C	1.514522	-1.219167	-0.333524
C80	C	2.014522	-0.719167	0.166476
C81	C	1.531363	-1.316264	-0.345636
C82	C	2.031363	-0.816264	0.154364
C83	C	1.480369	-1.354641	-0.308878
C84	C	1.980369	-0.854641	0.191122
C85	C	1.429835	-1.063328	-0.272538
C86	C	1.929835	-0.563328	0.227462
C87	C	1.548670	-1.083692	-0.358173
C88	C	2.048670	-0.583692	0.141827
C89	C	1.565517	-1.180790	-0.370282
C90	C	2.065517	-0.680790	0.129718
C91	C	1.663732	-0.722012	-0.236065
C92	C	2.163732	-0.222012	0.263935
C93	C	1.767083	-0.739880	-0.223176
C94	C	2.267083	-0.239880	0.276824
C95	C	1.421248	-0.680022	-0.471041
C96	C	1.921248	-0.180022	0.028959
C97	C	1.421267	-0.679997	-0.558284
C98	C	1.921267	-0.179997	-0.058284
C99	C	1.379363	-0.437605	-0.236113
C100	C	1.879363	0.062395	0.263887
C101	C	1.361533	-0.334277	-0.223243
C102	C	1.861533	0.165723	0.276757
C103	C	1.470479	-0.630816	-0.584453
C104	C	1.970479	-0.130816	-0.084453
C105	C	1.470485	-0.630787	-0.666428
C106	C	1.970485	-0.130787	-0.166428
C107	C	1.421284	-0.679945	-0.722233
C108	C	1.921284	-0.179945	-0.222233
C109	C	1.372065	-0.729126	-0.696061
C110	C	1.872065	-0.229126	-0.196061
C111	C	1.372054	-0.729149	-0.614087
C112	C	1.872054	-0.229149	-0.114087
C113	C	1.372093	-0.729077	-0.866919
C114	C	1.872093	-0.229077	-0.366919
C115	C	1.372105	-0.729056	-0.948899
C116	C	1.872105	-0.229056	-0.448899
C117	C	1.470524	-0.630715	-0.919260
C118	C	1.970524	-0.130715	-0.419260
C119	C	1.470513	-0.630738	-0.837286
C120	C	1.970513	-0.130738	-0.337286
C121	C	1.421296	-0.679921	-0.811119
C122	C	1.921296	-0.179921	-0.311119
C123	C	1.421201	-0.680081	-0.062365
C124	C	1.921201	-0.180081	0.437635
C125	C	1.421317	-0.679875	0.024933
C126	C	1.921317	-0.179875	0.524933
H127	H	0.802994	-0.573252	-0.343500
H128	H	1.302994	-0.073252	0.156500
F129	F	1.309655	-1.036687	-0.186378
F130	F	1.809655	-0.536687	0.313622
H131	H	1.510549	-0.590790	-0.539020
H132	H	2.010549	-0.090790	-0.039020
H133	H	1.252178	-1.306802	-0.144451
H134	H	1.752178	-0.806802	0.355549
H135	H	1.221609	-1.130632	-0.122472
H136	H	1.721609	-0.630632	0.377528
H137	H	0.794652	-0.849156	-0.144248
H138	H	1.294652	-0.349156	0.355752
H139	H	1.510562	-0.590742	-0.687729
H140	H	2.010562	-0.090742	-0.187729
F141	F	1.319696	-0.781439	-0.755455
F142	F	1.819696	-0.281439	-0.255455
F143	F	1.357633	-1.000833	-0.220528
F144	F	1.857633	-0.500833	0.279472
H145	H	1.331998	-0.769110	-0.845618
H146	H	1.831998	-0.269110	-0.345618
F147	F	1.498449	-1.458011	-0.321615
F148	F	1.998449	-0.958011	0.178385
H149	H	0.872541	-0.480760	-0.410291
H150	H	1.372541	0.019240	0.089709
H151	H	1.331969	-0.769186	-0.592783
H152	H	1.831969	-0.269186	-0.092783
F153	F	1.058295	-0.498450	-0.397474
F154	F	1.558295	0.001550	0.102526
H155	H	1.510596	-0.590666	-0.940569
H156	H	2.010596	-0.090666	-0.440569
H157	H	1.510583	-0.590716	-0.791850
H158	H	2.010583	-0.090716	-0.291850
F159	F	1.603554	-1.378766	-0.397663
F160	F	2.103554	-0.878766	0.102337
F161	F	1.200075	-0.757070	-0.210681
F162	F	1.700075	-0.257070	0.289319
H163	H	1.620756	-1.228623	-0.410073
H164	H	2.120756	-0.728623	0.089927
F165	F	1.120946	-0.862299	-0.134657
F166	F	1.620946	-0.362299	0.365343
F167	F	1.319730	-0.781365	-1.008290
F168	F	1.819730	-0.281365	-0.508290
F169	F	1.602945	-1.042854	-0.397298
F170	F	2.102945	-0.542854	0.102702
H171	H	0.970834	-0.879589	-0.122239
H172	H	1.470834	-0.379589	0.377761
H173	H	0.757556	-0.633716	-0.299845
H174	H	1.257556	-0.133716	0.200155
