data_functionalizedCrystal
_audit_creation_method	'MofGen! by Chris Wilmer'
_symmetry_space_group_name_H-M	'P1'
_symmetry_Int_Tables_number	1
_symmetry_cell_setting	triclinic
loop_
_symmetry_equiv_pos_as_xyz
  x,y,z
_cell_length_a	29.839131
_cell_length_b	19.121102
_cell_length_c	19.121324
_cell_angle_alpha	90.119300
_cell_angle_beta	87.529164
_cell_angle_gamma	92.404422
loop_
_atom_site_label
_atom_site_type_symbol
_atom_site_fract_x
_atom_site_fract_y
_atom_site_fract_z
Zn1	Zn	-0.195635	-1.054770	-0.442047
Zn2	Zn	-0.274094	-1.059652	-0.324799
Zn3	Zn	-0.195914	-0.942536	-0.319829
Zn4	Zn	-0.267670	-0.937469	-0.437004
O5	O	-0.233328	-0.998607	-0.380920
O6	O	-0.208615	-1.153522	-0.430684
O7	O	-0.266529	-1.048280	-0.226033
O8	O	-0.133011	-0.957502	-0.336072
O9	O	-0.266259	-1.157109	-0.344543
O10	O	-0.132806	-1.039960	-0.425865
O11	O	-0.209090	-0.962235	-0.222381
O12	O	-0.202861	-0.843760	-0.331182
O13	O	-0.255310	-0.948866	-0.535780
O14	O	-0.255580	-0.840037	-0.417270
O15	O	-0.202386	-1.035047	-0.539485
O16	O	-0.336108	-1.043367	-0.339653
O17	O	-0.331388	-0.953600	-0.422090
C18	C	-0.228554	-0.816461	-0.373140
C19	C	-0.226521	-0.738537	-0.369828
C20	C	-0.350049	-0.998482	-0.380880
C21	C	-0.399983	-0.998492	-0.380889
C22	C	-0.228100	-0.990847	-0.563782
C23	C	-0.225872	-0.987540	-0.641707
C24	C	-0.712074	-1.045428	-0.338064
C25	C	-0.899749	-1.045513	-0.338095
O26	O	-0.926092	-1.085320	-0.301653
N27	N	-0.920773	-0.998750	-0.380979
C28	C	-0.894875	-0.951966	-0.423861
O29	O	-0.917064	-0.912198	-0.460343
C30	C	-0.707202	-0.951884	-0.423834
C31	C	-0.686180	-0.998645	-0.380942
C32	C	-0.691052	-1.092185	-0.295176
C33	C	-0.644136	-1.092161	-0.295166
C34	C	-0.618242	-1.045379	-0.338044
C35	C	-0.639264	-0.998621	-0.380932
C36	C	-0.681305	-0.905104	-0.466720
C37	C	-0.634384	-0.905089	-0.466710
C38	C	-0.613362	-0.951850	-0.423818
C39	C	-0.566455	-0.951814	-0.423799
N40	N	-0.545430	-0.998577	-0.380915
C41	C	-0.571324	-1.045359	-0.338038
C42	C	-0.993407	-0.952011	-0.423872
C43	C	-1.040325	-0.952030	-0.423878
C44	C	-1.045195	-1.045579	-0.338112
C45	C	-0.998276	-1.045555	-0.338103
C46	C	-0.972383	-0.998774	-0.380988
C47	C	-0.472797	-1.045304	-0.338019
C48	C	-0.425877	-1.045274	-0.338011
C49	C	-0.421011	-0.951728	-0.423779
C50	C	-0.467927	-0.951756	-0.423785
C51	C	-0.493819	-0.998550	-0.380903
O52	O	-0.540083	-0.912033	-0.460228
O53	O	-0.549127	-1.085132	-0.301573
C54	C	-0.758990	-1.045452	-0.338074
C55	C	-0.780012	-0.998694	-0.380962
C56	C	-0.754118	-0.951912	-0.423840
C57	C	-0.826930	-0.998714	-0.380968
C58	C	-0.852824	-1.045496	-0.338090
C59	C	-0.831800	-1.092259	-0.295206
C60	C	-0.784884	-1.092234	-0.295196
C61	C	-0.775142	-0.905149	-0.466724
C62	C	-0.822058	-0.905177	-0.466730
C63	C	-0.847952	-0.951959	-0.423852
C64	C	-0.116152	-0.998751	-0.380976
C65	C	-0.066219	-0.998812	-0.381000
C66	C	-0.238122	-1.181464	-0.388731
C67	C	-0.240165	-1.259387	-0.392059
C68	C	-0.253060	-0.700012	-0.413023
C69	C	-0.251144	-0.626794	-0.409915
C70	C	-0.222692	-0.592104	-0.363607
C71	C	-0.196151	-0.630634	-0.320410
C72	C	-0.198064	-0.703850	-0.323523
C73	C	-0.215537	-0.371134	-0.351974
C74	C	-0.213626	-0.297913	-0.348864
C75	C	-0.268620	-0.294078	-0.438370
C76	C	-0.270533	-0.367296	-0.441475
C77	C	-0.243989	-0.405820	-0.398281
C78	C	-0.220735	-0.517264	-0.360427
C79	C	-0.245945	-0.480658	-0.401465
C80	C	-0.254729	-1.030781	-0.680220
C81	C	-0.252631	-1.027674	-0.753439
C82	C	-0.221676	-0.981321	-0.788143
C83	C	-0.192816	-0.938077	-0.749624
C84	C	-0.194913	-0.941189	-0.676407
C85	C	-0.213847	-0.969688	-1.009116
C86	C	-0.211753	-0.966579	-1.082339
C87	C	-0.271567	-1.056177	-1.086148
C88	C	-0.273663	-1.059281	-1.012929
C89	C	-0.244801	-1.016040	-0.974417
C90	C	-0.219531	-0.978142	-0.862984
C91	C	-0.246944	-1.019223	-0.899578
C92	C	-0.238505	-1.006378	-0.198771
C93	C	-0.240610	-1.009821	-0.120852
H94	H	-0.408763	-1.083352	-0.303081
H95	H	-0.276129	-1.062886	-0.784793
H96	H	-0.176451	-0.735217	-0.288352
H97	H	-0.167611	-0.900338	-0.777886
H98	H	-0.171414	-0.905978	-0.645050
H99	H	-0.197570	-0.489010	-0.322722
N100	N	-0.286355	-1.078129	-0.644785
N101	N	-0.312117	-1.116734	-0.679184
H102	H	-0.334453	-1.150176	-0.654160
H103	H	-1.066286	-1.083671	-0.303200
H104	H	-0.190347	-0.934476	-0.977769
N105	N	-0.976804	-1.093331	-0.294303
N106	N	-0.951054	-1.136931	-0.320908
H107	H	-0.935891	-1.170675	-0.289974
H108	H	-0.186543	-0.928834	-1.110593
N109	N	-0.607936	-0.857290	-0.510506
N110	N	-0.581331	-0.813667	-0.483892
H111	H	-0.562653	-0.779907	-0.514821
N112	N	-1.061788	-0.904250	-0.467684
N113	N	-1.038658	-0.862485	-0.505962
H114	H	-1.053814	-0.828740	-0.536903
N115	N	-0.305287	-1.106631	-0.977493
N116	N	-0.331051	-1.145236	-1.011889
H117	H	-0.353388	-1.178675	-0.986863
H118	H	-0.272145	-1.056966	-0.871319
N119	N	-0.702763	-0.857333	-0.510537
N120	N	-0.679630	-0.815575	-0.548818
H121	H	-0.694783	-0.781834	-0.579768
N122	N	-0.499234	-1.093105	-0.294212
N123	N	-0.480451	-1.134844	-0.255923
H124	H	-0.499121	-1.168601	-0.224980
N125	N	-0.622674	-1.139932	-0.251349
N126	N	-0.645806	-1.181696	-0.213074
H127	H	-0.630652	-1.215439	-0.182127
N128	N	-0.966968	-0.904218	-0.467686
N129	N	-0.985751	-0.862472	-0.505968
H130	H	-0.967080	-0.828716	-0.536911
N131	N	-0.188427	-0.410487	-0.307857
N132	N	-0.160182	-0.450325	-0.334340
H133	H	-0.141035	-0.478121	-0.303179
H134	H	-0.290229	-0.262704	-0.473537
N135	N	-0.843535	-0.857406	-0.510536
N136	N	-0.869291	-0.813811	-0.483938
H137	H	-0.884458	-0.780077	-0.514878
H138	H	-0.485044	-0.913681	-0.458713
N139	N	-0.394550	-0.903943	-0.467565
N140	N	-0.352660	-0.903934	-0.467545
H141	H	-0.333969	-0.870187	-0.498471
N142	N	-0.187916	-0.930781	-0.898423
N143	N	-0.162154	-0.892168	-0.864032
H144	H	-0.139825	-0.858719	-0.889063
N145	N	-0.763421	-1.140003	-0.251377
N146	N	-0.786554	-1.181765	-0.213099
H147	H	-0.771399	-1.215505	-0.182149
H148	H	-0.190452	-0.269670	-0.311159
N149	N	-0.167086	-0.595190	-0.273117
N150	N	-0.165381	-0.529819	-0.270343
H151	H	-0.144854	-0.504786	-0.236940
N152	N	-0.278250	-0.587427	-0.454029
N153	N	-0.260146	-0.544697	-0.497014
H154	H	-0.279291	-0.516891	-0.528170
H155	H	-0.269109	-0.508906	-0.439171
N156	N	-0.282125	-0.735456	-0.460317
N157	N	-0.312502	-0.777327	-0.437303
H158	H	-0.333030	-0.802359	-0.470705
H159	H	-0.852891	-1.130348	-0.260292
N160	N	-0.748698	-0.857367	-0.510535
N161	N	-0.752194	-0.859222	-0.575427
H162	H	-0.733520	-0.825471	-0.606371
N163	N	-0.717491	-1.139985	-0.251373
N164	N	-0.698706	-1.181726	-0.213090
H165	H	-0.717375	-1.215486	-0.182147
N166	N	-0.299604	-0.402724	-0.488770
N167	N	-0.340974	-0.394700	-0.483646
H168	H	-0.361509	-0.419720	-0.517046
N169	N	-0.301044	-1.100338	-1.125498
N170	N	-0.299170	-1.097555	-1.190870
H171	H	-0.319988	-1.128747	-1.218662
