data_functionalizedCrystal
_audit_creation_method	'MofGen! by Chris Wilmer'
_symmetry_space_group_name_H-M	'P1'
_symmetry_Int_Tables_number	1
_symmetry_cell_setting	triclinic
loop_
_symmetry_equiv_pos_as_xyz
  x,y,z
_cell_length_a	10.654541
_cell_length_b	10.654550
_cell_length_c	9.130313
_cell_angle_alpha	89.995631
_cell_angle_beta	89.997826
_cell_angle_gamma	84.484429
loop_
_atom_site_label
_atom_site_type_symbol
_atom_site_fract_x
_atom_site_fract_y
_atom_site_fract_z
O1	O	1.667842	0.176384	-0.121754
O2	O	1.302363	0.193193	-0.121767
O3	O	1.493506	0.002049	-0.121751
O4	O	1.476700	0.367528	-0.121770
O5	O	1.493492	0.002044	0.121848
O6	O	1.302350	0.193188	0.121832
O7	O	1.667829	0.176379	0.121845
Cu8	Cu	1.485088	0.184783	0.144081
Cu9	Cu	1.485104	0.184789	-0.144003
O10	O	1.476686	0.367522	0.121829
C11	C	1.492265	-0.044751	0.000048
C12	C	1.488573	-0.184195	0.000045
C13	C	1.255558	0.191957	0.000031
C14	C	1.116115	0.188266	0.000026
C15	C	1.601115	-0.263681	0.000049
C16	C	1.597638	-0.394702	0.000031
C17	C	1.369069	-0.366737	0.000012
C18	C	1.372546	-0.235718	0.000020
C19	C	1.088144	0.416831	-0.000004
C20	C	1.008650	0.529374	-0.000025
C21	C	0.877632	0.525898	-0.000026
C22	C	0.826107	0.409867	-0.000002
C23	C	0.905601	0.297324	0.000019
C24	C	1.036620	0.300812	0.000016
C25	C	0.933571	0.068763	0.000060
C26	C	1.064590	0.072235	0.000050
C27	C	0.882046	-0.047269	0.000084
C28	C	0.961541	-0.159814	0.000094
C29	C	1.092566	-0.156334	0.000094
C30	C	1.144084	-0.040308	0.000071
C31	C	1.714634	0.177615	0.000044
C32	C	1.854077	0.181306	0.000039
C33	C	1.477927	0.414323	0.000027
C34	C	1.481619	0.553766	0.000020
N35	N	1.485086	0.184777	0.346704
N36	N	1.485116	0.184785	-0.346626
C37	C	1.569753	0.100175	0.423362
C38	C	1.569765	0.100175	0.576699
C39	C	1.400440	0.269391	0.576705
C40	C	1.400423	0.269384	0.423371
H41	H	1.695591	-0.221735	0.000066
F42	F	0.906696	-0.283289	0.000131
H43	H	1.280896	-0.170997	0.000012
H44	H	1.274603	-0.408704	-0.000006
H45	H	1.194824	0.419672	-0.000035
F46	F	1.310342	0.359435	0.658309
F47	F	1.063496	0.652857	-0.000050
H48	H	1.689282	-0.459416	0.000030
F49	F	1.177161	-0.276121	0.000127
F50	F	0.793026	0.645678	-0.000036
H51	H	1.331471	0.338278	0.360951
F52	F	1.283524	-0.036594	0.000062
H53	H	0.719424	0.407048	0.000015
F54	F	0.742604	-0.050965	0.000091
H55	H	1.638690	0.031281	0.360944
H56	H	1.638707	0.031282	0.639111
