data_functionalizedCrystal
_audit_creation_method	'MofGen! by Chris Wilmer'
_symmetry_space_group_name_H-M	'P1'
_symmetry_Int_Tables_number	1
_symmetry_cell_setting	triclinic
loop_
_symmetry_equiv_pos_as_xyz
  x,y,z
_cell_length_a	15.995292
_cell_length_b	15.995292
_cell_length_c	14.472310
_cell_angle_alpha	90.002121
_cell_angle_beta	89.985801
_cell_angle_gamma	83.468616
loop_
_atom_site_label
_atom_site_type_symbol
_atom_site_fract_x
_atom_site_fract_y
_atom_site_fract_z
O1	O	1.111004	0.107692	-0.076859
O2	O	0.867220	0.121071	-0.076855
O3	O	0.995801	-0.007511	-0.076859
O4	O	0.982423	0.236274	-0.076856
O5	O	0.995768	-0.007504	0.076823
O6	O	0.867187	0.121078	0.076827
O7	O	1.110971	0.107699	0.076823
Cu8	Cu	0.989076	0.114389	0.090857
Cu9	Cu	0.989115	0.114381	-0.090889
O10	O	0.982390	0.236281	0.076826
C11	C	0.836008	0.120530	-0.000013
C12	C	0.743055	0.118898	-0.000012
C13	C	0.405318	0.112896	-0.000022
C14	C	0.428611	0.205703	-0.000364
C15	C	0.525286	0.207467	-0.000014
C16	C	0.572873	0.115874	-0.000018
C17	C	0.543762	0.069479	0.087738
C18	C	0.446972	0.068362	0.087808
C19	C	0.447154	0.066458	-0.086957
C20	C	0.543646	0.069898	-0.088113
C21	C	0.667569	0.117552	-0.000012
C22	C	0.310622	0.111215	-0.000022
C23	C	0.995240	-0.038703	-0.000020
C24	C	0.993608	-0.131655	-0.000027
C25	C	0.987607	-0.469393	-0.000018
C26	C	1.080413	-0.446100	0.000323
C27	C	1.082177	-0.349424	-0.000026
C28	C	0.990584	-0.301837	-0.000022
C29	C	0.944204	-0.330933	-0.087778
C30	C	0.943087	-0.427723	-0.087848
C31	C	0.941154	-0.427571	0.086917
C32	C	0.944593	-0.331080	0.088073
C33	C	0.992263	-0.207141	-0.000027
C34	C	0.985926	-0.564088	-0.000019
C35	C	1.142183	0.108240	-0.000021
C36	C	1.235136	0.109873	-0.000028
C37	C	0.982951	0.267473	-0.000014
C38	C	0.984583	0.360426	-0.000013
N39	N	0.989055	0.114395	0.218688
N40	N	0.989143	0.114368	-0.218720
C41	C	0.989114	0.114377	0.592779
C42	C	0.920082	0.182948	0.553616
C43	C	0.920241	0.183198	0.446527
C44	C	0.989084	0.114386	0.407188
C45	C	1.076447	0.133450	0.446024
C46	C	1.076059	0.133938	0.553146
C47	C	0.971563	0.026539	0.553308
C48	C	0.969559	0.027125	0.446181
C49	C	0.989072	0.114390	0.302300
C50	C	0.989131	0.114376	0.697668
H51	H	0.420134	0.100499	0.153410
H52	H	0.562223	0.103678	-0.153035
H53	H	0.875041	-0.442259	-0.091821
H54	H	0.563800	0.101704	0.153049
F55	F	0.427968	-0.020575	0.093057
H56	H	1.091528	0.197997	0.578122
H57	H	1.116000	-0.475128	-0.062259
F58	F	1.145157	0.071074	0.587008
F59	F	0.988729	-0.306813	0.172933
H60	H	1.118744	-0.331030	-0.063045
H61	H	0.931133	0.247765	0.580526
F62	F	0.390654	0.252208	0.081432
F63	F	0.856109	-0.289259	-0.092045
F64	F	0.585426	-0.018621	0.091999
F65	F	1.097153	0.216225	0.410948
H66	H	0.931447	0.248382	0.420894
H67	H	1.116172	-0.474101	0.063257
H68	H	0.855302	0.171842	0.420272
H69	H	0.576632	0.003044	-0.093416
H70	H	0.905294	0.012657	0.420799
F71	F	1.037362	-0.040159	0.586409
F72	F	1.145195	0.069906	0.412718
F73	F	0.834922	0.168341	0.587305
H74	H	0.418836	0.095463	-0.153472
H75	H	0.877738	-0.298096	0.093376
H76	H	0.975235	-0.454549	-0.153451
H77	H	0.909242	0.008203	0.580377
F78	F	0.986338	-0.304730	-0.173146
F79	F	0.428888	-0.022831	-0.087735
H80	H	0.970367	-0.455663	0.153436
F81	F	1.031017	-0.042696	0.411193
F82	F	0.851865	-0.445840	0.087696
H83	H	0.400621	0.241472	-0.063299
F84	F	0.549317	0.255249	0.082355
F85	F	1.129639	-0.324558	0.082207
F86	F	0.550165	0.254957	-0.082238
