data_functionalizedCrystal
_audit_creation_method	'MofGen! by Chris Wilmer'
_symmetry_space_group_name_H-M	'P1'
_symmetry_Int_Tables_number	1
_symmetry_cell_setting	triclinic
loop_
_symmetry_equiv_pos_as_xyz
  x,y,z
_cell_length_a	10.489716
_cell_length_b	15.944493
_cell_length_c	9.565339
_cell_angle_alpha	89.993144
_cell_angle_beta	90.003468
_cell_angle_gamma	84.002090
loop_
_atom_site_label
_atom_site_type_symbol
_atom_site_fract_x
_atom_site_fract_y
_atom_site_fract_z
O1	O	1.692393	0.118405	0.116229
O2	O	1.321035	0.129550	0.116232
O3	O	1.516893	0.001760	0.116242
O4	O	1.496534	0.246195	0.116219
O5	O	1.516877	0.001770	-0.116278
O6	O	1.321018	0.129560	-0.116288
O7	O	1.692376	0.118414	-0.116292
Zn8	Zn	1.506695	0.123989	-0.153207
Zn9	Zn	1.506717	0.123976	0.153148
O10	O	1.496518	0.246205	-0.116301
C11	C	1.273506	0.128718	-0.000027
C12	C	1.131911	0.126212	-0.000025
C13	C	1.033126	0.204577	-0.000029
C14	C	0.956359	0.163172	-0.114676
C15	C	0.956382	0.163144	0.114570
C16	C	1.057009	0.084840	-0.114767
C17	C	1.057037	0.084823	0.114583
C18	C	0.980320	0.043361	-0.000092
C19	C	1.516053	-0.029535	-0.000012
C20	C	1.513558	-0.122798	0.000006
C21	C	1.628845	-0.357872	-0.000022
C22	C	1.566683	-0.408815	0.114622
C23	C	1.508936	-0.293547	-0.000012
C24	C	1.566639	-0.408782	-0.114624
C25	C	1.504480	-0.458483	-0.000034
C26	C	1.446807	-0.343262	0.114727
C27	C	1.446780	-0.343225	-0.114622
C28	C	1.384530	-0.394135	0.000050
C29	C	1.511506	-0.198532	0.000003
C30	C	1.501900	-0.553496	-0.000038
C31	C	1.739905	0.119247	-0.000029
C32	C	1.881500	0.121752	-0.000022
C33	C	1.497358	0.277500	-0.000044
C34	C	1.499853	0.370763	-0.000053
N35	N	1.506689	0.123997	-0.362287
C36	C	1.416851	0.183557	-0.546664
C37	C	1.391070	0.107736	-0.453431
C38	C	1.532413	0.199812	-0.453451
C39	C	1.480894	0.048101	-0.546591
C40	C	1.622287	0.140227	-0.546620
C41	C	1.596555	0.064352	-0.453428
N42	N	1.506732	0.123961	0.362227
H43	H	1.056829	0.272743	-0.000143
F44	F	0.949642	-0.045799	-0.000170
H45	H	1.396203	-0.314747	0.211754
F46	F	1.380659	-0.305742	-0.241315
F47	F	1.560829	0.283635	-0.399972
F48	F	1.114225	0.041632	-0.241583
H49	H	1.101009	0.051763	0.211518
F50	F	0.898900	0.206416	-0.241370
F51	F	0.898942	0.206397	0.241241
F52	F	1.249424	-0.415158	0.000129
H53	H	1.617296	-0.437407	-0.211541
F54	F	1.763846	-0.336638	0.000123
H55	H	1.617330	-0.437463	0.211546
F56	F	1.317463	0.249336	-0.600175
H57	H	1.459041	-0.016044	-0.587333
F58	F	1.695888	-0.001572	-0.400256
H59	H	1.293331	0.093990	-0.412487
H60	H	1.719996	0.154001	-0.587588
