data_functionalizedCrystal
_audit_creation_method	'MofGen! by Chris Wilmer'
_symmetry_space_group_name_H-M	'P1'
_symmetry_Int_Tables_number	1
_symmetry_cell_setting	triclinic
loop_
_symmetry_equiv_pos_as_xyz
  x,y,z
_cell_length_a	14.908571
_cell_length_b	16.625539
_cell_length_c	14.908520
_cell_angle_alpha	86.731803
_cell_angle_beta	89.794039
_cell_angle_gamma	86.686754
loop_
_atom_site_label
_atom_site_type_symbol
_atom_site_fract_x
_atom_site_fract_y
_atom_site_fract_z
Zn1	Zn	1.353972	-0.548158	0.437408
Zn2	Zn	1.687306	-0.214825	0.770742
Zn3	Zn	2.020639	0.118509	1.104075
Zn4	Zn	1.345187	-0.420623	0.587773
Zn5	Zn	1.678521	-0.087290	0.921106
Zn6	Zn	2.011854	0.246043	1.254439
Zn7	Zn	1.203605	-0.405151	0.428750
Zn8	Zn	1.536938	-0.071818	0.762083
Zn9	Zn	1.870272	0.261515	1.095416
Zn10	Zn	1.194900	-0.547226	0.579032
Zn11	Zn	1.528233	-0.213893	0.912366
Zn12	Zn	1.861567	0.119441	1.245699
O13	O	1.274416	-0.480290	0.508241
O14	O	1.607749	-0.146956	0.841574
O15	O	1.941083	0.186377	1.174908
O16	O	1.478632	-0.538105	0.464636
O17	O	1.811965	-0.204772	0.797969
O18	O	2.145298	0.128561	1.131303
O19	O	1.326373	-0.305739	0.566712
O20	O	1.659706	0.027595	0.900045
O21	O	1.993039	0.360928	1.233379
O22	O	1.230871	-0.418036	0.304076
O23	O	1.564205	-0.084703	0.637410
O24	O	1.897538	0.248630	0.970743
O25	O	1.472177	-0.444406	0.575108
O26	O	1.805511	-0.111073	0.908441
O27	O	2.138844	0.222260	1.241775
O28	O	1.341345	-0.523103	0.310438
O29	O	1.674679	-0.189769	0.643771
O30	O	2.008012	0.143564	0.977105
O31	O	1.222353	-0.294371	0.449879
O32	O	1.555686	0.038962	0.783212
O33	O	1.889019	0.372295	1.116545
O34	O	1.076625	-0.417133	0.441404
O35	O	1.409959	-0.083799	0.774737
O36	O	1.743292	0.249534	1.108070
O37	O	1.216035	-0.660182	0.560212
O38	O	1.549368	-0.326849	0.893545
O39	O	1.882701	0.006485	1.226878
O40	O	1.070230	-0.521514	0.551816
O41	O	1.403563	-0.188181	0.885149
O42	O	1.736896	0.145152	1.218482
O43	O	1.332904	-0.660867	0.456161
O44	O	1.666238	-0.327533	0.789494
O45	O	1.999571	0.005800	1.122828
O46	O	1.317932	-0.443503	0.712435
O47	O	1.651265	-0.110169	1.045768
O48	O	1.984598	0.223164	1.379102
O49	O	1.207516	-0.536517	0.706014
O50	O	1.540850	-0.203184	1.039347
O51	O	1.874183	0.130150	1.372680
C52	C	1.040803	-0.467544	0.494722
C53	C	1.374136	-0.134211	0.828056
C54	C	1.707469	0.199123	1.161389
C55	C	0.940860	-0.462111	0.488961
C56	C	1.274194	-0.128778	0.822294
C57	C	1.607527	0.204555	1.155627
C58	C	0.746437	-0.560466	0.593284
C59	C	1.079770	-0.227133	0.926618
C60	C	1.413104	0.106201	1.259951
C61	C	0.652532	-0.555364	0.587874
C62	C	0.985866	-0.222031	0.921207
C63	C	1.319199	0.111302	1.254540
C64	C	0.659145	-0.446812	0.472724
C65	C	0.992478	-0.113478	0.806058
C66	C	1.325811	0.219855	1.139391
C67	C	0.753050	-0.451913	0.478135
C68	C	1.086383	-0.118580	0.811468
C69	C	1.419716	0.214754	1.144802
C70	C	0.796692	-0.508741	0.538418
C71	C	1.130025	-0.175408	0.871751
C72	C	1.463359	0.157925	1.205085
C73	C	0.890598	-0.513838	0.543833
C74	C	1.223932	-0.180505	0.877166
C75	C	1.557265	0.152828	1.210499
C76	C	0.897209	-0.405290	0.428680
C77	C	1.230543	-0.071956	0.762013
C78	C	1.563876	0.261377	1.095346
C79	C	0.803305	-0.400188	0.423269
C80	C	1.136638	-0.066855	0.756602
C81	C	1.469971	0.266478	1.089935
C82	C	1.274478	-0.690599	0.508177
C83	C	1.607812	-0.357265	0.841511
C84	C	1.941145	-0.023932	1.174844
C85	C	1.274505	-0.780220	0.508150
C86	C	1.607838	-0.446886	0.841483
C87	C	1.941172	-0.113553	1.174817
C88	C	1.274552	-1.108393	0.508052
C89	C	1.607886	-0.775060	0.841385
C90	C	1.941219	-0.441726	1.174718
C91	C	1.274536	-1.017085	0.508082
C92	C	1.607870	-0.683752	0.841415
C93	C	1.941203	-0.350418	1.174749
C94	C	1.274529	-0.944309	0.508102
C95	C	1.607862	-0.610976	0.841435
C96	C	1.941196	-0.277643	1.174768
C97	C	1.274512	-0.852996	0.508130
C98	C	1.607846	-0.519662	0.841464
C99	C	1.941179	-0.186329	1.174797
C100	C	1.508942	-0.493086	0.521813
C101	C	1.842275	-0.159752	0.855146
C102	C	2.175608	0.173581	1.188480
C103	C	1.608883	-0.498539	0.527596
C104	C	1.942216	-0.165205	0.860930
C105	C	2.275549	0.168128	1.194263
C106	C	1.260850	-0.491607	0.741850
C107	C	1.594184	-0.158273	1.075183
C108	C	1.927517	0.175060	1.408517
C109	C	1.255129	-0.496479	0.841794
C110	C	1.588463	-0.163146	1.175127
C111	C	1.921796	0.170187	1.508460
C112	C	1.274410	-0.270799	0.508242
C113	C	1.607743	0.062535	0.841576
C114	C	1.941076	0.395868	1.174909
C115	C	1.274572	-0.181175	0.508026
C116	C	1.607905	0.152158	0.841360
C117	C	1.941238	0.485492	1.174693
C118	C	1.288059	-0.468947	0.273721
C119	C	1.621393	-0.135614	0.607054
C120	C	1.954726	0.197719	0.940388
C121	C	1.293873	-0.464114	0.173782
C122	C	1.627206	-0.130781	0.507116
C123	C	1.960540	0.202553	0.840449
C124	C	1.359472	-0.408870	1.036231
C125	C	1.692806	-0.075537	1.369564
C126	C	2.026139	0.257797	1.702898
C127	C	1.354100	-0.413446	1.130137
C128	C	1.687433	-0.080113	1.463471
C129	C	2.020766	0.253221	1.796804
C130	C	1.239017	-0.510211	1.123515
C131	C	1.572350	-0.176878	1.456848
C132	C	1.905683	0.156455	1.790181
C133	C	1.244389	-0.505635	1.029608
C134	C	1.577723	-0.172302	1.362942
C135	C	1.911056	0.161031	1.696275
C136	C	1.304618	-0.454962	0.985970
C137	C	1.637952	-0.121629	1.319303
C138	C	1.971285	0.211705	1.652637
C139	C	1.309986	-0.450382	0.892062
C140	C	1.643319	-0.117049	1.225395
C141	C	1.976652	0.216285	1.558728
C142	C	1.194908	-0.547151	0.885441
C143	C	1.528241	-0.213818	1.218774
C144	C	1.861574	0.119515	1.552108
C145	C	1.189535	-0.551728	0.979347
C146	C	1.522869	-0.218394	1.312680
C147	C	1.856202	0.114939	1.646014
H148	H	0.767758	-0.353923	0.374186
H149	H	1.101091	-0.020589	0.707519
H150	H	1.434425	0.312744	1.040853
F151	F	1.125442	-0.605658	1.025800
F152	F	1.458775	-0.272324	1.359134
F153	F	1.792109	0.061009	1.692467
H154	H	0.938137	-0.363170	0.384005
H155	H	1.271471	-0.029837	0.717339
H156	H	1.604804	0.303497	1.050672
F157	F	0.792886	-0.620939	0.657449
F158	F	1.126220	-0.287605	0.990782
F159	F	1.459553	0.045728	1.324116
F160	F	1.412485	-0.364390	1.183626
F161	F	1.745818	-0.031057	1.516959
F162	F	2.079152	0.302277	1.850293
F163	F	0.599050	-0.610419	0.646268
F164	F	0.932383	-0.277085	0.979601
F165	F	1.265717	0.056248	1.312935
F166	F	1.136514	-0.596200	0.831942
F167	F	1.469848	-0.262867	1.165275
F168	F	1.803181	0.070467	1.498609
H169	H	0.926130	-0.560109	0.592920
H170	H	1.259464	-0.226776	0.926253
H171	H	1.592797	0.106557	1.259586
H172	H	0.623595	-0.400550	0.423639
H173	H	0.956928	-0.067217	0.756973
H174	H	1.290262	0.266117	1.090306
H175	H	1.359024	-0.409119	0.856532
H176	H	1.692358	-0.075786	1.189865
H177	H	2.025691	0.257548	1.523199
F178	F	1.423560	-0.354929	0.989785
F179	F	1.756893	-0.021596	1.323118
F180	F	2.090226	0.311737	1.656452
F181	F	1.174933	-0.564147	1.169973
F182	F	1.508266	-0.230813	1.503307
F183	F	1.841599	0.102520	1.836640
