data_functionalizedCrystal
_audit_creation_method	'MofGen! by Chris Wilmer'
_symmetry_space_group_name_H-M	'P1'
_symmetry_Int_Tables_number	1
_symmetry_cell_setting	triclinic
loop_
_symmetry_equiv_pos_as_xyz
  x,y,z
_cell_length_a	16.120530
_cell_length_b	21.295417
_cell_length_c	16.120297
_cell_angle_alpha	92.867002
_cell_angle_beta	90.128140
_cell_angle_gamma	87.125778
loop_
_atom_site_label
_atom_site_type_symbol
_atom_site_fract_x
_atom_site_fract_y
_atom_site_fract_z
Zn1	Zn	1.247391	-0.318915	-0.534523
Zn2	Zn	1.747391	0.181085	-0.034523
Zn3	Zn	1.254326	-0.419125	-0.395453
Zn4	Zn	1.754326	0.080875	0.104547
Zn5	Zn	1.115383	-0.308278	-0.388443
Zn6	Zn	1.615383	0.191722	0.111557
Zn7	Zn	1.108282	-0.418545	-0.527422
Zn8	Zn	1.608282	0.081455	-0.027422
O9	O	1.181345	-0.366216	-0.461460
O10	O	1.681345	0.133784	0.038540
O11	O	1.364676	-0.336903	-0.521981
O12	O	1.864676	0.163097	-0.021981
O13	O	1.241769	-0.400212	-0.278158
O14	O	1.741769	0.099788	0.221842
O15	O	1.132963	-0.221604	-0.407859
O16	O	1.632963	0.278396	0.092141
O17	O	1.369771	-0.410526	-0.419806
O18	O	1.869771	0.089474	0.080194
O19	O	1.229949	-0.229419	-0.515184
O20	O	1.729949	0.270581	-0.015184
O21	O	1.139688	-0.318773	-0.273008
O22	O	1.639688	0.181227	0.226992
O23	O	0.998075	-0.318211	-0.400973
O24	O	1.498075	0.181789	0.099027
O25	O	1.120862	-0.409538	-0.644729
O26	O	1.620862	0.090462	-0.144729
O27	O	0.992859	-0.399224	-0.503081
O28	O	1.492859	0.100776	-0.003081
O29	O	1.223064	-0.336340	-0.649946
O30	O	1.723064	0.163660	-0.149946
O31	O	1.234884	-0.507133	-0.412921
O32	O	1.734884	-0.007133	0.087079
O33	O	1.127586	-0.506707	-0.509878
O34	O	1.627586	-0.006707	-0.009878
C35	C	0.965295	-0.357501	-0.450496
C36	C	1.465295	0.142499	0.049504
C37	C	0.872866	-0.353788	-0.445825
C38	C	1.372866	0.146212	0.054175
C39	C	0.703638	-0.346996	-0.437305
C40	C	1.203638	0.153004	0.062695
C41	C	0.659891	-0.385485	-0.485677
C42	C	1.159891	0.114515	0.014323
C43	C	0.565726	-0.381705	-0.480936
C44	C	1.065726	0.118295	0.019064
C45	C	0.797811	-0.350774	-0.442045
C46	C	1.297811	0.149226	0.057955
C47	C	1.181239	-0.529761	-0.461409
C48	C	1.681239	-0.029761	0.038591
C49	C	1.181268	-0.599731	-0.461418
C50	C	1.681268	-0.099731	0.038582
C51	C	1.237182	-0.632802	-0.410990
C52	C	1.737182	-0.132802	0.089010
C53	C	1.237220	-0.698547	-0.411010
C54	C	1.737220	-0.198547	0.088990
C55	C	1.181329	-0.731217	-0.461450
C56	C	1.681329	-0.231217	0.038550
C57	C	1.125411	-0.698138	-0.511889
C58	C	1.625411	-0.198138	-0.011889
C59	C	1.125380	-0.632395	-0.511873
C60	C	1.625380	-0.132395	-0.011873
N61	N	1.108264	-0.831783	-0.464098
N62	N	1.608264	-0.331783	0.035902
N63	N	1.108296	-0.894236	-0.464108
N64	N	1.608296	-0.394236	0.035892
C65	C	1.181420	-0.929297	-0.461503
C66	C	1.681420	-0.429297	0.038497
N67	N	1.254514	-0.899546	-0.458870
N68	N	1.754514	-0.399546	0.041130
N69	N	1.254481	-0.837087	-0.458855
N70	N	1.754481	-0.337087	0.041145
C71	C	1.181357	-0.802504	-0.461473
C72	C	1.681357	-0.302504	0.038527
C73	C	1.237380	-1.033657	-0.411094
C74	C	1.737380	-0.533657	0.088906
C75	C	1.237419	-1.099403	-0.411120
C76	C	1.737419	-0.599403	0.088880
C77	C	1.125603	-1.098992	-0.511994
C78	C	1.625603	-0.598992	-0.011994
C79	C	1.125571	-1.033248	-0.511973
C80	C	1.625571	-0.533248	-0.011973
C81	C	1.181459	-1.000584	-0.461518
C82	C	1.681459	-0.500584	0.038482
C83	C	1.398240	-0.374966	-0.472468
C84	C	1.898240	0.125034	0.027532
C85	C	1.490667	-0.378694	-0.477159
C86	C	1.990667	0.121306	0.022841
C87	C	1.170397	-0.374061	-0.678353
C88	C	1.670397	0.125939	-0.178353
C89	C	1.165731	-0.377404	-0.770780
C90	C	1.665731	0.122596	-0.270780
C91	C	1.181474	-0.202033	-0.461531
C92	C	1.681474	0.297967	0.038469
C93	C	1.181529	-0.132068	-0.461562
C94	C	1.681529	0.367932	0.038438
C95	C	1.157183	-0.383493	-0.940004
C96	C	1.657183	0.116507	-0.440004
C97	C	1.205672	-0.348757	-0.983777
C98	C	1.705672	0.151243	-0.483777
C99	C	1.200915	-0.352144	-1.077938
C100	C	1.700915	0.147856	-0.577938
C101	C	1.161938	-0.380106	-0.845834
C102	C	1.661938	0.119894	-0.345834
C103	C	1.192299	-0.358358	-0.245413
C104	C	1.692299	0.141642	0.254587
C105	C	1.197126	-0.354844	-0.152995
C106	C	1.697126	0.145156	0.347005
H107	H	1.282755	-0.725479	-0.369945
H108	H	1.782755	-0.225479	0.130055
O109	O	1.071201	-0.729850	-0.561009
O110	O	1.571201	-0.229850	-0.061009
C111	C	1.085104	-0.717462	-0.644815
C112	C	1.585104	-0.217462	-0.144815
H113	H	1.151309	-0.702173	-0.652433
H114	H	1.651309	-0.202173	-0.152433
H115	H	1.075855	-0.761884	-0.685536
H116	H	1.575855	-0.261884	-0.185536
H117	H	1.039392	-0.678312	-0.664246
H118	H	1.539392	-0.178312	-0.164246
H119	H	1.112102	-0.415774	-0.973246
H120	H	1.612102	0.084226	-0.473246
O121	O	1.259485	-0.310193	-0.944255
O122	O	1.759485	0.189807	-0.444255
C123	C	1.303656	-0.278575	-1.003500
C124	C	1.803656	0.221425	-0.503500
H125	H	1.266529	-0.277200	-1.063708
H126	H	1.766529	0.222800	-0.563708
H127	H	1.313822	-0.228452	-0.978786
H128	H	1.813822	0.271548	-0.478786
H129	H	1.366332	-0.304505	-1.015912
H130	H	1.866332	0.195495	-0.515912
O131	O	0.699703	-0.428167	-0.539256
O132	O	1.199703	0.071833	-0.039256
C133	C	0.786221	-0.422481	-0.532131
C134	C	1.286221	0.077519	-0.032131
H135	H	0.801212	-0.399929	-0.468590
H136	H	1.301212	0.100071	0.031410
H137	H	0.818997	-0.471140	-0.539283
H138	H	1.318997	0.028860	-0.039283
H139	H	0.808415	-0.391778	-0.582758
H140	H	1.308415	0.108222	-0.082758
O141	O	1.071425	-1.130794	-0.561042
O142	O	1.571425	-0.630794	-0.061042
C143	C	1.116032	-1.172607	-0.617214
C144	C	1.616032	-0.672607	-0.117214
H145	H	1.180556	-1.183904	-0.591137
H146	H	1.680556	-0.683904	-0.091137
H147	H	1.081614	-1.217894	-0.626628
H148	H	1.581614	-0.717894	-0.126628
H149	H	1.121998	-1.149834	-0.679297
H150	H	1.621998	-0.649834	-0.179297
H151	H	1.080037	-1.006319	-0.553033
H152	H	1.580037	-0.506319	-0.053033
O153	O	1.291594	-1.001824	-0.362115
O154	O	1.791594	-0.501824	0.137885
C155	C	1.279588	-0.936705	-0.372925
C156	C	1.779588	-0.436705	0.127075
H157	H	1.214014	-0.926158	-0.396843
H158	H	1.714014	-0.426158	0.103157
H159	H	1.288413	-0.909715	-0.310925
H160	H	1.788413	-0.409715	0.189075
H161	H	1.326626	-0.921586	-0.419746
H162	H	1.826626	-0.421586	0.080254
H163	H	0.670373	-0.311209	-0.392335
H164	H	1.170373	0.188791	0.107665
O165	O	1.291769	-1.131432	-0.362055
O166	O	1.791769	-0.631432	0.137945
C167	C	1.341100	-1.088501	-0.317537
C168	C	1.841100	-0.588501	0.182463
H169	H	1.307164	-1.040185	-0.312890
H170	H	1.807164	-0.540185	0.187110
H171	H	1.353334	-1.105505	-0.252484
H172	H	1.853334	-0.605505	0.247516
H173	H	1.402690	-1.085099	-0.351236
H174	H	1.902690	-0.585099	0.148764
O175	O	1.291509	-0.601009	-0.362104
O176	O	1.791509	-0.101009	0.137896
C177	C	1.342784	-0.566818	-0.412207
C178	C	1.842784	-0.066818	0.087793
H179	H	1.310222	-0.558063	-0.473708
H180	H	1.810222	-0.058063	0.026292
H181	H	1.355643	-0.519816	-0.378902
H182	H	1.855643	-0.019816	0.121098
H183	H	1.403949	-0.594925	-0.424524
H184	H	1.903949	-0.094925	0.075476
H185	H	1.079847	-0.605468	-0.552939
H186	H	1.579847	-0.105468	-0.052939
