data_functionalizedCrystal
_audit_creation_method	'MofGen! by Chris Wilmer'
_symmetry_space_group_name_H-M	'P1'
_symmetry_Int_Tables_number	1
_symmetry_cell_setting	triclinic
loop_
_symmetry_equiv_pos_as_xyz
  x,y,z
_cell_length_a	18.215407
_cell_length_b	12.594516
_cell_length_c	18.215399
_cell_angle_alpha	90.022106
_cell_angle_beta	90.019833
_cell_angle_gamma	90.016501
loop_
_atom_site_label
_atom_site_type_symbol
_atom_site_fract_x
_atom_site_fract_y
_atom_site_fract_z
Zn1	Zn	1.125117	-0.423740	0.416146
Zn2	Zn	1.625117	0.076260	0.916146
Zn3	Zn	1.125045	-0.601738	0.293092
Zn4	Zn	1.625045	-0.101738	0.793092
Zn5	Zn	1.002050	-0.423775	0.293093
Zn6	Zn	1.502050	0.076225	0.793093
Zn7	Zn	1.002035	-0.601679	0.416117
Zn8	Zn	1.502035	-0.101679	0.916117
O9	O	1.063561	-0.512733	0.354612
O10	O	1.563561	-0.012733	0.854612
O11	O	1.228092	-0.447362	0.399834
O12	O	1.728092	0.052638	0.899834
O13	O	1.108705	-0.578170	0.190108
O14	O	1.608705	-0.078170	0.690108
O15	O	1.018412	-0.274825	0.309429
O16	O	1.518412	0.225175	0.809429
O17	O	1.228038	-0.578136	0.309427
O18	O	1.728038	-0.078136	0.809427
O19	O	1.108829	-0.274799	0.399835
O20	O	1.608829	0.225201	0.899835
O21	O	1.018341	-0.447422	0.190109
O22	O	1.518341	0.052578	0.690109
O23	O	0.899063	-0.447364	0.309401
O24	O	1.399063	0.052636	0.809401
O25	O	1.018386	-0.578035	0.519105
O26	O	1.518386	-0.078035	1.019105
O27	O	0.899052	-0.578069	0.399786
O28	O	1.399052	-0.078069	0.899786
O29	O	1.108814	-0.447305	0.519126
O30	O	1.608814	0.052695	1.019126
O31	O	1.108690	-0.750676	0.309399
O32	O	1.608690	-0.250676	0.809399
O33	O	1.018315	-0.750632	0.399785
O34	O	1.518315	-0.250632	0.899785
C35	C	0.872355	-0.512715	0.354591
C36	C	1.372355	-0.012715	0.854591
C37	C	0.790556	-0.512733	0.354599
C38	C	1.290556	-0.012733	0.854599
C39	C	0.602376	-0.580898	0.401604
C40	C	1.102376	-0.080898	0.901604
C41	C	0.525517	-0.580901	0.401613
C42	C	1.025517	-0.080901	0.901613
C43	C	0.525499	-0.444588	0.307636
C44	C	1.025499	0.055412	0.807636
C45	C	0.602356	-0.444580	0.307631
C46	C	1.102356	0.055420	0.807631
C47	C	0.640793	-0.512741	0.354614
C48	C	1.140793	-0.012741	0.854614
C49	C	0.487077	-0.512752	0.354628
C50	C	0.987077	-0.012752	0.854628
C51	C	0.403743	-0.512755	0.354638
C52	C	0.903743	-0.012755	0.854638
C53	C	0.724132	-0.512737	0.354606
C54	C	1.224132	-0.012737	0.854606
C55	C	1.063513	-0.789274	0.354605
C56	C	1.563513	-0.289274	0.854605
C57	C	1.063560	-0.907579	0.354626
C58	C	1.563560	-0.407579	0.854626
C59	C	1.014400	-0.976847	0.403753
C60	C	1.514400	-0.476847	0.903753
C61	C	0.996471	-1.047706	0.336600
C62	C	1.496471	-0.547706	0.836600
C63	C	1.081556	-1.047520	0.421791
C64	C	1.581556	-0.547520	0.921791
C65	C	1.045595	-0.976880	0.287438
C66	C	1.545595	-0.476880	0.787438
C67	C	1.130712	-0.976687	0.372674
C68	C	1.630712	-0.476687	0.872674
C69	C	1.112808	-1.047514	0.305475
C70	C	1.612808	-0.547514	0.805475
C71	C	1.255514	-0.512752	0.354634
C72	C	1.755514	-0.012752	0.854634
C73	C	1.337313	-0.512760	0.354643
C74	C	1.837313	-0.012760	0.854643
C75	C	1.063606	-0.512660	0.546565
C76	C	1.563606	-0.012660	1.046565
C77	C	1.063625	-0.512628	0.628364
C78	C	1.563625	-0.012628	1.128364
C79	C	1.063630	-0.235112	0.354635
C80	C	1.563630	0.264888	0.854635
C81	C	1.063659	-0.116807	0.354645
C82	C	1.563659	0.383193	0.854645
C83	C	1.063559	-0.512729	0.163406
C84	C	1.563559	-0.012729	0.663406
C85	C	1.063683	-0.512461	0.081607
C86	C	1.563683	-0.012461	0.581607
C87	C	1.110728	-0.444493	0.816570
C88	C	1.610728	0.055507	1.316570
C89	C	1.110737	-0.444462	0.893429
C90	C	1.610737	0.055538	1.393429
C91	C	1.016575	-0.580599	0.893396
C92	C	1.516575	-0.080599	1.393396
C93	C	1.016563	-0.580624	0.816538
C94	C	1.516563	-0.080624	1.316538
C95	C	1.063644	-0.512572	0.778127
C96	C	1.563644	-0.012572	1.278127
C97	C	1.063664	-0.512517	0.931844
C98	C	1.563664	-0.012517	1.431844
C99	C	1.063674	-0.512483	1.015177
C100	C	1.563674	-0.012483	1.515177
C101	C	1.063634	-0.512604	0.694788
C102	C	1.563634	-0.012604	1.194788
H103	H	0.494195	-0.389095	0.269384
H104	H	0.994195	0.110905	0.769384
H105	H	1.096738	-1.078549	0.478583
H106	H	1.596738	-0.578549	0.978583
N107	N	0.968452	-0.650154	0.777266
N108	N	1.468452	-0.150154	1.277266
N109	N	0.900548	-0.643080	0.785838
N110	N	1.400548	-0.143080	1.285838
H111	H	0.866568	-0.692179	0.758102
H112	H	1.366568	-0.192179	1.258102
H113	H	0.939728	-1.078924	0.321350
H114	H	1.439728	-0.578924	0.821350
N115	N	0.486277	-0.650545	0.449598
N116	N	0.986277	-0.150545	0.949598
N117	N	0.443372	-0.718328	0.423627
N118	N	0.943372	-0.218328	0.923627
H119	H	0.415659	-0.767519	0.457518
H120	H	0.915659	-0.267519	0.957518
N121	N	1.158812	-0.374960	0.777345
N122	N	1.658812	0.125040	1.277345
N123	N	1.153948	-0.276744	0.785943
N124	N	1.653948	0.223256	1.285943
H125	H	1.187907	-0.227630	0.758243
H126	H	1.687907	0.272370	1.258243
H127	H	1.030348	-0.945979	0.230630
H128	H	1.530348	-0.445979	0.730630
N129	N	1.158834	-0.374908	0.932685
N130	N	1.658834	0.125092	1.432685
N131	N	1.200861	-0.314153	0.898378
N132	N	1.700861	0.185847	1.398378
H133	H	1.234831	-0.265025	0.926102
H134	H	1.734831	0.234975	1.426102
N135	N	0.641604	-0.374940	0.259640
N136	N	1.141604	0.125060	0.759640
N137	N	0.633039	-0.276735	0.264637
N138	N	1.133039	0.223265	0.764637
H139	H	0.660758	-0.227550	0.230748
H140	H	1.160758	0.272450	0.730748
N141	N	0.641627	-0.650528	0.449597
N142	N	1.141627	-0.150528	0.949597
N143	N	0.607313	-0.711377	0.491548
N144	N	1.107313	-0.211377	0.991548
H145	H	0.635031	-0.760555	0.525446
H146	H	1.135031	-0.260555	1.025446
N147	N	1.165011	-1.086188	0.253304
N148	N	1.665011	-0.586188	0.753304
N149	N	1.158301	-1.063339	0.186868
N150	N	1.658301	-0.563339	0.686868
H151	H	1.195166	-1.090654	0.150019
H152	H	1.695166	-0.590654	0.650019
N153	N	0.968489	-0.650100	0.932644
N154	N	1.468489	-0.150100	1.432644
N155	N	0.968505	-0.650070	1.001266
N156	N	1.468505	-0.150070	1.501266
H157	H	0.934545	-0.699158	1.028985
H158	H	1.434545	-0.199158	1.528985
N159	N	0.962151	-0.937928	0.455792
N160	N	1.462151	-0.437928	0.955792
N161	N	0.895709	-0.960741	0.448968
N162	N	1.395709	-0.460741	0.948968
H163	H	0.858806	-0.933254	0.485718
H164	H	1.358806	-0.433254	0.985718
H165	H	1.187442	-0.945472	0.387956
H166	H	1.687442	-0.445472	0.887956
