data_functionalizedCrystal
_audit_creation_method	'MofGen! by Chris Wilmer'
_symmetry_space_group_name_H-M	'P1'
_symmetry_Int_Tables_number	1
_symmetry_cell_setting	triclinic
loop_
_symmetry_equiv_pos_as_xyz
  x,y,z
_cell_length_a	25.639239
_cell_length_b	18.215407
_cell_length_c	18.215399
_cell_angle_alpha	89.980167
_cell_angle_beta	89.969965
_cell_angle_gamma	90.039134
loop_
_atom_site_label
_atom_site_type_symbol
_atom_site_fract_x
_atom_site_fract_y
_atom_site_fract_z
Zn1	Zn	-0.208150	1.125001	-0.416105
Zn2	Zn	0.125183	1.458335	-0.082772
Zn3	Zn	0.458517	1.791668	0.250561
Zn4	Zn	-0.295586	1.124880	-0.293034
Zn5	Zn	0.037747	1.458213	0.040299
Zn6	Zn	0.371081	1.791547	0.373632
Zn7	Zn	-0.208167	1.001934	-0.293053
Zn8	Zn	0.125166	1.335267	0.040281
Zn9	Zn	0.458500	1.668601	0.373614
Zn10	Zn	-0.295557	1.001870	-0.416059
Zn11	Zn	0.037777	1.335204	-0.082726
Zn12	Zn	0.371110	1.668537	0.250607
O13	O	-0.251865	1.063421	-0.354563
O14	O	0.081468	1.396755	-0.021230
O15	O	0.414802	1.730088	0.312104
O16	O	-0.219754	1.227970	-0.399791
O17	O	0.113580	1.561303	-0.066458
O18	O	0.446913	1.894636	0.266875
O19	O	-0.284009	1.108547	-0.190052
O20	O	0.049324	1.441880	0.143281
O21	O	0.382658	1.775214	0.476614
O22	O	-0.135000	1.018337	-0.309403
O23	O	0.198334	1.351670	0.023931
O24	O	0.531667	1.685003	0.357264
O25	O	-0.283992	1.227880	-0.309372
O26	O	0.049341	1.561214	0.023962
O27	O	0.382674	1.894547	0.357295
O28	O	-0.134987	1.108754	-0.399809
O29	O	0.198346	1.442087	-0.066475
O30	O	0.531680	1.775420	0.266858
O31	O	-0.219783	1.018219	-0.190066
O32	O	0.113551	1.351552	0.143268
O33	O	0.446884	1.684886	0.476601
O34	O	-0.219754	0.898941	-0.309358
O35	O	0.113579	1.232275	0.023975
O36	O	0.446912	1.565608	0.357309
O37	O	-0.283943	1.018228	-0.519050
O38	O	0.049391	1.351561	-0.185716
O39	O	0.382724	1.684895	0.147617
O40	O	-0.283959	0.898894	-0.399731
O41	O	0.049374	1.232228	-0.066397
O42	O	0.382707	1.565561	0.266936
O43	O	-0.219725	1.108692	-0.519083
O44	O	0.113608	1.442025	-0.185750
O45	O	0.446941	1.775358	0.147583
O46	O	-0.368747	1.108485	-0.309327
O47	O	-0.035414	1.441819	0.024006
O48	O	0.297919	1.775152	0.357340
O49	O	-0.368726	1.018110	-0.399713
O50	O	-0.035393	1.351444	-0.066380
O51	O	0.297941	1.684777	0.266954
C52	C	-0.251856	0.872215	-0.354542
C53	C	0.081477	1.205548	-0.021208
C54	C	0.414811	1.538882	0.312125
C55	C	-0.251865	0.790416	-0.354550
C56	C	0.081469	1.123750	-0.021217
C57	C	0.414802	1.457083	0.312117
C58	C	-0.285349	0.602217	-0.401548
C59	C	0.047985	0.935551	-0.068215
C60	C	0.381318	1.268884	0.265119
C61	C	-0.285350	0.525358	-0.401557
C62	C	0.047983	0.858692	-0.068224
C63	C	0.381316	1.192025	0.265109
C64	C	-0.218391	0.525378	-0.307594
C65	C	0.114943	0.858711	0.025740
C66	C	0.448276	1.192044	0.359073
C67	C	-0.218387	0.602235	-0.307589
C68	C	0.114947	0.935568	0.025745
C69	C	0.448280	1.268902	0.359078
C70	C	-0.251869	0.640653	-0.354565
C71	C	0.081465	0.973986	-0.021232
C72	C	0.414798	1.307319	0.312102
C73	C	-0.251874	0.486937	-0.354579
C74	C	0.081459	0.820270	-0.021246
C75	C	0.414792	1.153603	0.312088
C76	C	-0.251876	0.403603	-0.354589
C77	C	0.081458	0.736936	-0.021255
C78	C	0.414791	1.070270	0.312078
C79	C	-0.251867	0.723992	-0.354556
C80	C	0.081467	1.057325	-0.021223
C81	C	0.414800	1.390658	0.312110
C82	C	-0.387708	1.063298	-0.354529
C83	C	-0.054374	1.396631	-0.021196
C84	C	0.278959	1.729964	0.312138
C85	C	-0.445822	1.063312	-0.354539
C86	C	-0.112488	1.396645	-0.021206
C87	C	0.220845	1.729979	0.312127
C88	C	-0.806183	1.110602	-0.307579
C89	C	-0.472850	1.443936	0.025754
C90	C	-0.139516	1.777269	0.359088
C91	C	-0.860787	1.110631	-0.307589
C92	C	-0.527454	1.443964	0.025744
C93	C	-0.194121	1.777298	0.359078
O94	O	-0.889023	1.150711	-0.267625
O95	O	-0.555690	1.484044	0.065709
O96	O	-0.222356	1.817377	0.399042
N97	N	-0.888104	1.063551	-0.354612
N98	N	-0.554771	1.396884	-0.021278
N99	N	-0.221437	1.730217	0.312055
C100	C	-0.860813	1.016444	-0.401633
C101	C	-0.527480	1.349778	-0.068299
C102	C	-0.194147	1.683111	0.265034
O103	O	-0.889062	0.976402	-0.441631
O104	O	-0.555729	1.309735	-0.108297
O105	O	-0.222395	1.643069	0.225036
C106	C	-0.806210	1.016420	-0.401626
C107	C	-0.472877	1.349753	-0.068293
C108	C	-0.139543	1.683087	0.265041
C109	C	-0.778896	1.063498	-0.354595
C110	C	-0.445563	1.396831	-0.021262
C111	C	-0.112230	1.730165	0.312072
C112	C	-0.778869	1.157677	-0.260553
C113	C	-0.445536	1.491010	0.072781
C114	C	-0.112203	1.824344	0.406114
C115	C	-0.724269	1.157647	-0.260542
C116	C	-0.390935	1.490981	0.072791
C117	C	-0.057602	1.824314	0.406125
C118	C	-0.696982	1.110543	-0.307558
C119	C	-0.363649	1.443876	0.025775
C120	C	-0.030315	1.777210	0.359109
C121	C	-0.724296	1.063468	-0.354584
C122	C	-0.390962	1.396802	-0.021251
C123	C	-0.057629	1.730135	0.312082
C124	C	-0.778920	0.969318	-0.448650
C125	C	-0.445587	1.302651	-0.115317
C126	C	-0.112254	1.635984	0.218016
C127	C	-0.724313	0.969298	-0.448640
C128	C	-0.390980	1.302631	-0.115307
C129	C	-0.057647	1.635965	0.218027
C130	C	-0.697000	1.016376	-0.401609
C131	C	-0.363666	1.349709	-0.068276
C132	C	-0.030333	1.683043	0.265058
C133	C	-0.642408	1.016334	-0.401590
C134	C	-0.309075	1.349668	-0.068256
C135	C	0.024258	1.683001	0.265077
N136	N	-0.615092	1.063414	-0.354567
N137	N	-0.281759	1.396748	-0.021234
N138	N	0.051575	1.730081	0.312100
C139	C	-0.642379	1.110519	-0.307551
C140	C	-0.309045	1.443852	0.025782
C141	C	0.024288	1.777185	0.359115
C142	C	-0.975484	1.016500	-0.401644
C143	C	-0.642151	1.349833	-0.068311
C144	C	-0.308817	1.683166	0.265023
C145	C	-1.030086	1.016520	-0.401648
C146	C	-0.696753	1.349853	-0.068314
C147	C	-0.363420	1.683186	0.265019
C148	C	-1.030057	1.110708	-0.307605
C149	C	-0.696723	1.444041	0.025729
C150	C	-0.363390	1.777374	0.359062
C151	C	-0.975453	1.110683	-0.307598
C152	C	-0.642120	1.444017	0.025735
C153	C	-0.308787	1.777350	0.359069
C154	C	-0.948167	1.063580	-0.354621
C155	C	-0.614834	1.396913	-0.021288
C156	C	-0.281501	1.730247	0.312045
C157	C	-0.527714	1.110452	-0.307532
C158	C	-0.194380	1.443786	0.025801
C159	C	0.138953	1.777119	0.359135
C160	C	-0.473108	1.110416	-0.307523
C161	C	-0.139775	1.443750	0.025810
C162	C	0.193558	1.777083	0.359143
C163	C	-0.473143	1.016232	-0.401569
C164	C	-0.139809	1.349565	-0.068235
C165	C	0.193524	1.682898	0.265098
C166	C	-0.527743	1.016265	-0.401575
C167	C	-0.194410	1.349598	-0.068242
C168	C	0.138923	1.682931	0.265092
C169	C	-0.555027	1.063381	-0.354554
C170	C	-0.221694	1.396714	-0.021221
C171	C	0.111639	1.730048	0.312113
O172	O	-0.614138	0.976277	-0.441536
O173	O	-0.280805	1.309611	-0.108202
O174	O	0.052528	1.642944	0.225131
O175	O	-0.614123	1.150561	-0.267567
O176	O	-0.280790	1.483894	0.065766
O177	O	0.052543	1.817228	0.399100
C178	C	-0.115492	1.063566	-0.354613
C179	C	0.217841	1.396899	-0.021279
C180	C	0.551175	1.730232	0.312054
C181	C	-0.057378	1.063627	-0.354634
C182	C	0.275956	1.396961	-0.021301
C183	C	0.609289	1.730294	0.312033
C184	C	-0.251829	1.063466	-0.546516
C185	C	0.081504	1.396800	-0.213183
C186	C	0.414838	1.730133	0.120151
C187	C	-0.251814	1.063485	-0.628315
C188	C	0.081520	1.396819	-0.294981
C189	C	0.414853	1.730152	0.038352
C190	C	-0.251874	1.255374	-0.354584
C191	C	0.081459	1.588708	-0.021251
C192	C	0.414792	1.922041	0.312082
C193	C	-0.251878	1.337173	-0.354594
C194	C	0.081455	1.670507	-0.021260
C195	C	0.414788	2.003840	0.312073
C196	C	-0.218344	1.110607	-0.816528
C197	C	0.114989	1.443940	-0.483194
C198	C	0.448322	1.777274	-0.149861
C199	C	-0.218329	1.110616	-0.893386
C200	C	0.115004	1.443949	-0.560053
C201	C	0.448338	1.777282	-0.226720
C202	C	-0.285202	1.016416	-0.893340
C203	C	0.048131	1.349749	-0.560007
C204	C	0.381465	1.683083	-0.226673
C205	C	-0.285214	1.016404	-0.816483
C206	C	0.048119	1.349737	-0.483149
C207	C	0.381452	1.683071	-0.149816
C208	C	-0.251786	1.063504	-0.778078
C209	C	0.081547	1.396837	-0.444745
C210	C	0.414881	1.730170	-0.111412
C211	C	-0.251759	1.063524	-0.931795
C212	C	0.081575	1.396858	-0.598461
C213	C	0.414908	1.730191	-0.265128
C214	C	-0.251742	1.063534	-1.015128
C215	C	0.081591	1.396867	-0.681795
C216	C	0.414924	1.730200	-0.348462
C217	C	-0.251801	1.063494	-0.694739
C218	C	0.081532	1.396827	-0.361406
C219	C	0.414865	1.730160	-0.028073
C220	C	-0.251863	1.063419	-0.163357
C221	C	0.081470	1.396752	0.169977
C222	C	0.414804	1.730086	0.503310
C223	C	-0.251731	1.063543	-0.081558
C224	C	0.081602	1.396876	0.251775
C225	C	0.414935	1.730209	0.585109
H226	H	-0.312613	0.494068	-0.439817
H227	H	0.020721	0.827401	-0.106483
H228	H	0.354054	1.160734	0.226850
H229	H	-0.801150	0.930978	-0.486945
H230	H	-0.467817	1.264312	-0.153611
H231	H	-0.134483	1.597645	0.179722
O232	O	-1.059492	1.161530	-0.256905
O233	O	-0.726158	1.494863	0.076429
O234	O	-0.392825	1.828196	0.409762
H235	H	-1.102049	1.153642	-0.264824
H236	H	-0.768715	1.486975	0.068509
H237	H	-0.435382	1.820309	0.401843
O238	O	-0.182281	0.483949	-0.256919
O239	O	0.151052	0.817282	0.076415
O240	O	0.484386	1.150616	0.409748
H241	H	-0.191198	0.498684	-0.199141
H242	H	0.142135	0.832018	0.134193
H243	H	0.475469	1.165351	0.467526
H244	H	-0.191123	1.148956	-0.785261
H245	H	0.142210	1.482290	-0.451928
H246	H	0.475543	1.815623	-0.118594
O247	O	-0.182282	0.643699	-0.256901
O248	O	0.151051	0.977033	0.076432
O249	O	0.484384	1.310366	0.409766
H250	H	-0.159009	0.604074	-0.224225
H251	H	0.174324	0.937408	0.109109
H252	H	0.507658	1.270741	0.442442
O253	O	-0.443651	1.161206	-0.256802
O254	O	-0.110318	1.494539	0.076532
O255	O	0.223015	1.827873	0.409865
H256	H	-0.401097	1.153274	-0.264687
H257	H	-0.067764	1.486607	0.068646
H258	H	0.265569	1.819941	0.401980
O259	O	-0.321254	0.965619	-0.934766
O260	O	0.012079	1.298952	-0.601432
O261	O	0.345412	1.632285	-0.268099
H262	H	-0.362292	0.978190	-0.919996
H263	H	-0.028959	1.311523	-0.586663
H264	H	0.304374	1.644857	-0.253330
O265	O	-1.059545	0.965738	-0.452368
O266	O	-0.726211	1.299072	-0.119035
O267	O	-0.392878	1.632405	0.214298
H268	H	-1.031391	0.932985	-0.485060
H269	H	-0.698058	1.266319	-0.151727
H270	H	-0.364725	1.599652	0.181606
H271	H	-0.191096	1.148971	-0.924688
H272	H	0.142237	1.482304	-0.591355
H273	H	0.475570	1.815637	-0.258022
O274	O	-0.557138	1.161263	-0.256812
O275	O	-0.223805	1.494596	0.076521
O276	O	0.109528	1.827930	0.409854
H277	H	-0.528965	1.193982	-0.224109
H278	H	-0.195631	1.527315	0.109225
H279	H	0.137702	1.860649	0.442558
O280	O	-0.321280	0.965595	-0.774998
O281	O	0.012053	1.298928	-0.441665
O282	O	0.345387	1.632262	-0.108331
H283	H	-0.297872	0.928177	-0.739994
H284	H	0.035461	1.261510	-0.406661
H285	H	0.368795	1.594843	-0.073327
O286	O	-0.946054	0.965674	-0.452347
O287	O	-0.612721	1.299008	-0.119014
O288	O	-0.279388	1.632341	0.214320
H289	H	-0.974227	0.932936	-0.485034
H290	H	-0.640894	1.266270	-0.151700
H291	H	-0.307560	1.599603	0.181633
H292	H	-0.702033	1.195984	-0.222248
H293	H	-0.368700	1.529318	0.111086
H294	H	-0.035366	1.862651	0.444419
H295	H	-0.702100	0.930941	-0.486935
H296	H	-0.368767	1.264275	-0.153601
H297	H	-0.035433	1.597608	0.179732
H298	H	-0.312611	0.633495	-0.439801
H299	H	0.020723	0.966828	-0.106468
H300	H	0.354056	1.300161	0.226866
H301	H	-0.450917	0.977877	-0.439847
H302	H	-0.117584	1.311211	-0.106513
H303	H	0.215749	1.644544	0.226820
O304	O	-0.808296	1.208482	-0.209834
O305	O	-0.474963	1.541815	0.123500
O306	O	-0.141630	1.875148	0.456833
H307	H	-0.780121	1.241202	-0.177133
H308	H	-0.446788	1.574535	0.156200
H309	H	-0.113455	1.907868	0.489534
O310	O	-0.945994	1.161467	-0.256881
O311	O	-0.612661	1.494800	0.076453
O312	O	-0.279327	1.828133	0.409786
H313	H	-0.974147	1.194226	-0.224195
H314	H	-0.640814	1.527559	0.109138
H315	H	-0.307480	1.860893	0.442472
H316	H	-0.549983	0.977932	-0.439874
H317	H	-0.216650	1.311266	-0.106540
H318	H	0.116683	1.644599	0.226793
