data_functionalizedCrystal
_audit_creation_method	'MofGen! by Chris Wilmer'
_symmetry_space_group_name_H-M	'P1'
_symmetry_Int_Tables_number	1
_symmetry_cell_setting	triclinic
loop_
_symmetry_equiv_pos_as_xyz
  x,y,z
_cell_length_a	13.897448
_cell_length_b	12.759401
_cell_length_c	12.759393
_cell_angle_alpha	90.020120
_cell_angle_beta	89.966654
_cell_angle_gamma	89.986338
loop_
_atom_site_label
_atom_site_type_symbol
_atom_site_fract_x
_atom_site_fract_y
_atom_site_fract_z
Zn1	Zn	-0.384062	-1.606234	-0.594014
Zn2	Zn	-0.545391	-1.606119	-0.418328
Zn3	Zn	-0.384100	-1.430535	-0.418348
Zn4	Zn	-0.545305	-1.430515	-0.593965
O5	O	-0.464715	-1.518351	-0.506164
O6	O	-0.405482	-1.753239	-0.570721
O7	O	-0.524048	-1.582788	-0.271310
O8	O	-0.249114	-1.453899	-0.441679
O9	O	-0.524010	-1.753155	-0.441646
O10	O	-0.249085	-1.582983	-0.570740
O11	O	-0.405548	-1.453788	-0.271324
O12	O	-0.405465	-1.283512	-0.441632
O13	O	-0.523864	-1.453864	-0.740993
O14	O	-0.523901	-1.283497	-0.570657
O15	O	-0.405399	-1.582964	-0.741028
O16	O	-0.680361	-1.582768	-0.441598
O17	O	-0.680298	-1.453753	-0.570638
C18	C	-0.464679	-1.245383	-0.506142
C19	C	-0.464686	-1.128607	-0.506157
C20	C	-0.403083	-1.073782	-0.573470
C21	C	-0.403096	-0.964058	-0.573473
C22	C	-0.526325	-0.963993	-0.438850
C23	C	-0.526306	-1.073715	-0.438841
C24	C	-0.331940	-1.073818	-0.651197
C25	C	-0.331953	-0.964094	-0.651200
C26	C	-0.715329	-1.518274	-0.506133
C27	C	-0.822543	-1.518337	-0.506156
C28	C	-1.018838	-1.518448	-0.506221
C29	C	-0.909605	-1.518383	-0.506188
C30	C	-0.213122	-1.518456	-0.506217
C31	C	-0.105908	-1.518501	-0.506240
C32	C	-0.464617	-1.518424	-0.780197
C33	C	-0.464576	-1.518456	-0.896974
C34	C	-0.464739	-0.792384	-0.506180
C35	C	-0.464718	-0.909161	-0.506169
C36	C	-0.402885	-1.585687	-0.951856
C37	C	-0.402850	-1.585712	-1.061581
C38	C	-0.526205	-1.451271	-1.061530
C39	C	-0.526234	-1.451242	-0.951808
C40	C	-0.331670	-1.663309	-0.951886
C41	C	-0.331636	-1.663334	-1.061611
C42	C	-0.464742	-1.518338	-0.233196
C43	C	-0.464512	-1.518510	-0.116420
H44	H	-0.358780	-1.107882	-0.728435
H45	H	-0.256968	-1.641544	-0.922132
H46	H	-0.576465	-1.396492	-0.907127
H47	H	-0.260655	-1.634224	-1.095660
H48	H	-0.257205	-1.103589	-0.629546
H49	H	-0.260956	-0.930056	-0.622202
H50	H	-0.352054	-0.934348	-0.732535
H51	H	-0.576403	-1.396546	-1.106189
H52	H	-0.358456	-1.740579	-0.917852
H53	H	-0.351649	-1.744703	-1.091391
H54	H	-0.576460	-1.118350	-0.384020
H55	H	-0.576493	-0.919287	-0.384044
