data_functionalizedCrystal
_audit_creation_method	'MofGen! by Chris Wilmer'
_symmetry_space_group_name_H-M	'P1'
_symmetry_Int_Tables_number	1
_symmetry_cell_setting	triclinic
loop_
_symmetry_equiv_pos_as_xyz
  x,y,z
_cell_length_a	19.188930
_cell_length_b	10.723024
_cell_length_c	9.198806
_cell_angle_alpha	90.002012
_cell_angle_beta	90.017817
_cell_angle_gamma	83.806325
loop_
_atom_site_label
_atom_site_type_symbol
_atom_site_fract_x
_atom_site_fract_y
_atom_site_fract_z
O1	O	-0.927157	-0.155778	-0.121357
O2	O	-0.427157	0.344222	0.378643
O3	O	-0.723982	-0.176749	-0.121257
O4	O	-0.223982	0.323251	0.378743
O5	O	-0.830256	0.015410	-0.121304
O6	O	-0.330256	0.515410	0.378696
O7	O	-0.820883	-0.347937	-0.121310
O8	O	-0.320883	0.152063	0.378690
O9	O	-0.830247	0.015410	0.120481
O10	O	-0.330247	0.515410	0.620481
O11	O	-0.723973	-0.176749	0.120528
O12	O	-0.223973	0.323251	0.620528
O13	O	-0.927148	-0.155778	0.120428
O14	O	-0.427148	0.344222	0.620428
Cu15	Cu	-0.825560	-0.166263	0.142555
Cu16	Cu	-0.325560	0.333737	0.642555
Cu17	Cu	-0.825570	-0.166264	-0.143384
Cu18	Cu	-0.325570	0.333736	0.356616
O19	O	-0.820874	-0.347937	0.120475
O20	O	-0.320874	0.152063	0.620475
C21	C	-0.697962	-0.176070	-0.000351
C22	C	-0.197962	0.323930	0.499649
C23	C	-0.620444	-0.174031	-0.000313
C24	C	-0.120444	0.325969	0.499687
C25	C	-0.953168	-0.156457	-0.000480
C26	C	-0.453168	0.343543	0.499520
C27	C	-1.030686	-0.158496	-0.000528
C28	C	-0.530686	0.341504	0.499472
C29	C	-0.576253	-0.286784	-0.000338
C30	C	-0.076253	0.213216	0.499662
C31	C	-0.503417	-0.284869	-0.000354
C32	C	-0.003417	0.215131	0.499646
C33	C	-0.474775	-0.170195	-0.000374
C34	C	0.025225	0.329805	0.499626
C35	C	-0.518976	-0.057427	-0.000341
C36	C	-0.018976	0.442573	0.499659
C37	C	-0.591811	-0.059346	-0.000311
C38	C	-0.091811	0.440654	0.499689
N39	N	-0.366228	-0.082541	-0.082721
N40	N	0.133772	0.417459	0.417279
N41	N	-0.297038	-0.080726	-0.082753
N42	N	0.202962	0.419274	0.417247
C43	C	-0.255329	-0.164408	-0.000463
C44	C	0.244671	0.335592	0.499537
N45	N	-0.285423	-0.249992	0.081842
N46	N	0.214577	0.250008	0.581842
N47	N	-0.354619	-0.251810	0.081868
N48	N	0.145381	0.248190	0.581868
C49	C	-0.395799	-0.168102	-0.000406
C50	C	0.104201	0.331898	0.499594
C51	C	-0.132160	-0.275091	-0.000503
C52	C	0.367840	0.224909	0.499497
C53	C	-0.059322	-0.273171	-0.000510
C54	C	0.440678	0.226829	0.499490
C55	C	-0.074883	-0.045726	-0.000512
C56	C	0.425117	0.454274	0.499488
C57	C	-0.147719	-0.047650	-0.000490
C58	C	0.352281	0.452350	0.499510
C59	C	-0.176353	-0.162335	-0.000493
C60	C	0.323647	0.337665	0.499507
C61	C	-0.829569	0.061895	-0.000412
C62	C	-0.329569	0.561895	0.499588
C63	C	-0.827529	0.200407	-0.000417
C64	C	-0.327529	0.700407	0.499583
C65	C	-0.821561	-0.394423	-0.000419
C66	C	-0.321561	0.105577	0.499581
C67	C	-0.823601	-0.532935	-0.000424
C68	C	-0.323601	-0.032935	0.499576
N69	N	-0.825558	-0.166262	0.343669
N70	N	-0.325558	0.333738	0.843669
C71	C	-0.886994	0.276624	-0.000448
C72	C	-0.386994	0.776624	0.499552
C73	C	-0.884886	0.419784	-0.000452
C74	C	-0.384886	0.919784	0.499548
N75	N	-0.825577	-0.166255	-0.344497
N76	N	-0.325577	0.333745	0.155503
C77	C	-0.870179	-0.085229	0.415847
C78	C	-0.370179	0.414771	0.915847
C79	C	-0.870190	-0.085224	0.583259
C80	C	-0.370190	0.414776	1.083259
H81	H	-0.599562	-0.380170	-0.000343
H82	H	-0.099562	0.119830	0.499657
Cl83	Cl	-0.928992	0.022161	0.319910
Cl84	Cl	-0.428992	0.522161	0.819910
Cl85	Cl	-0.447852	-0.426626	-0.000381
Cl86	Cl	0.052148	0.073374	0.499619
H87	H	-0.908395	-0.015852	0.645328
H88	H	-0.408395	0.484148	1.145328
Cl89	Cl	-0.203277	0.094105	-0.000468
Cl90	Cl	0.296723	0.594105	0.499532
H91	H	-0.051564	0.047644	-0.000619
H92	H	0.448436	0.547644	0.499381
H93	H	-0.939465	0.235891	-0.000465
H94	H	-0.439465	0.735891	0.499535
Cl95	Cl	-0.647369	0.082413	-0.000281
Cl96	Cl	-0.147369	0.582413	0.499719
H97	H	-0.495651	0.035941	-0.000378
H98	H	0.004349	0.535941	0.499622
H99	H	-0.155474	-0.368475	-0.000484
H100	H	0.344526	0.131525	0.499516
H101	H	-0.787376	-0.235640	0.593442
H102	H	-0.287376	0.264360	1.093442
Cl103	Cl	-0.003766	-0.414931	-0.000534
Cl104	Cl	0.496234	0.085069	0.499466
Cl105	Cl	-0.744998	0.365969	-0.000372
Cl106	Cl	-0.244998	0.865969	0.499628
Cl107	Cl	-0.746513	0.263284	-0.000391
Cl108	Cl	-0.246513	0.763284	0.499609
Cl109	Cl	-0.766583	-0.273367	0.439606
Cl110	Cl	-0.266583	0.226633	0.939606
H111	H	-0.935793	0.485273	-0.000472
H112	H	-0.435793	0.985273	0.499528
