data_functionalizedCrystal
_audit_creation_method	'MofGen! by Chris Wilmer'
_symmetry_space_group_name_H-M	'P1'
_symmetry_Int_Tables_number	1
_symmetry_cell_setting	triclinic
loop_
_symmetry_equiv_pos_as_xyz
  x,y,z
_cell_length_a	10.685976
_cell_length_b	10.686285
_cell_length_c	12.759393
_cell_angle_alpha	94.397013
_cell_angle_beta	85.641244
_cell_angle_gamma	81.631153
loop_
_atom_site_label
_atom_site_type_symbol
_atom_site_fract_x
_atom_site_fract_y
_atom_site_fract_z
Zn1	Zn	1.979330	-0.653839	0.425686
Zn2	Zn	1.995511	-0.866117	0.235439
Zn3	Zn	1.767073	-0.637649	0.264635
Zn4	Zn	1.783364	-0.849780	0.425693
O5	O	1.881320	-0.751846	0.337864
O6	O	2.159092	-0.695611	0.388228
O7	O	1.965162	-0.835872	0.092290
O8	O	1.781640	-0.462179	0.298215
O9	O	2.170980	-0.851571	0.248454
O10	O	1.937585	-0.474074	0.416538
O11	O	1.797330	-0.668017	0.113740
O12	O	1.591619	-0.652176	0.298222
O13	O	1.809405	-0.823727	0.572714
O14	O	1.603588	-0.808028	0.416550
O15	O	1.953381	-0.679770	0.572709
O16	O	1.980959	-1.041567	0.248461
O17	O	1.825095	-1.029564	0.388240
C18	C	1.551550	-0.726573	0.360555
C19	C	1.410476	-0.715791	0.370286
C20	C	1.906585	-1.081623	0.315204
C21	C	1.917510	-1.222711	0.305537
C22	C	2.212377	-0.777219	0.315084
C23	C	2.353454	-0.788032	0.305376
C24	C	1.881405	-0.751732	0.611899
C25	C	1.881442	-0.751683	0.728676
C26	C	1.855990	-0.420785	0.360632
C27	C	1.845196	-0.279706	0.370335
C28	C	1.881300	-0.751874	0.064896
C29	C	1.881482	-0.751585	-0.051874
C30	C	1.956415	-0.676712	0.783538
C31	C	1.956432	-0.676659	0.893264
C32	C	1.806500	-0.826558	0.893258
C33	C	1.806477	-0.826604	0.783534
H34	H	1.774929	-1.220567	0.433209
H35	H	1.987773	-1.281858	0.242653
C36	C	1.352628	-0.947338	0.162210
C37	C	1.433243	-0.882677	0.220297
H38	H	1.401890	-1.005772	0.109693
H39	H	1.296660	-0.888070	0.129429
H40	H	1.304678	-0.992043	0.208116
H41	H	1.481187	-0.837964	0.174392
H42	H	1.489233	-0.941953	0.253079
H43	H	1.351368	-0.645697	0.433308
H44	H	2.017452	-0.615703	0.738876
C45	C	2.104643	-0.528511	0.882240
C46	C	2.038852	-0.594255	0.953567
H47	H	2.155532	-0.477642	0.919470
H48	H	2.045624	-0.475739	0.846586
H49	H	2.157409	-0.587571	0.832302
H50	H	1.986078	-0.535195	1.003501
H51	H	2.097879	-0.647030	0.989239
C52	C	1.739969	-0.893056	1.061453
C53	C	1.724113	-0.908919	0.953560
H54	H	1.689112	-0.943912	1.098676
H55	H	1.714872	-0.806354	1.086573
H56	H	1.826679	-0.918164	1.072282
H57	H	1.637405	-0.883801	0.942730
H58	H	1.749202	-0.995640	0.928432
C59	C	1.658285	-0.974789	0.794538
C60	C	1.724066	-0.909024	0.723221
H61	H	1.607415	-1.025672	0.757300
H62	H	1.605513	-0.915751	0.844473
H63	H	1.717320	-1.027560	0.830195
H64	H	1.665030	-0.856245	0.687569
H65	H	1.776842	-0.968069	0.673268
