data_functionalizedCrystal
_audit_creation_method	'MofGen! by Chris Wilmer'
_symmetry_space_group_name_H-M	'P1'
_symmetry_Int_Tables_number	1
_symmetry_cell_setting	triclinic
loop_
_symmetry_equiv_pos_as_xyz
  x,y,z
_cell_length_a	15.625950
_cell_length_b	15.537937
_cell_length_c	14.750779
_cell_angle_alpha	97.572959
_cell_angle_beta	120.090508
_cell_angle_gamma	113.261194
loop_
_atom_site_label
_atom_site_type_symbol
_atom_site_fract_x
_atom_site_fract_y
_atom_site_fract_z
O1	O	1.275485	-0.029978	0.364014
O2	O	0.973730	-0.071445	0.259007
O3	O	1.183364	0.091582	0.331967
O4	O	1.065851	-0.193005	0.291055
O5	O	1.242624	0.137663	0.512241
O6	O	1.032990	-0.025364	0.439282
O7	O	1.334744	0.016103	0.544289
Zn8	Zn	1.193276	0.002686	0.520408
Zn9	Zn	1.115199	-0.058028	0.282888
O10	O	1.125110	-0.146924	0.471329
C11	C	0.965684	-0.051090	0.336034
C12	C	0.853424	-0.059079	0.296969
C13	C	0.645573	0.040151	0.659689
C14	C	0.540063	0.032612	0.622929
C15	C	0.475513	-0.017620	0.426419
C16	C	0.581018	-0.010090	0.463162
C17	C	0.666041	0.018798	0.579799
C18	C	0.601486	-0.031444	0.383272
C19	C	0.706984	-0.023908	0.420013
C20	C	0.792014	0.004981	0.536645
C21	C	0.771540	0.026333	0.616540
C22	C	0.516464	-0.060324	0.266637
C23	C	0.536932	-0.081678	0.186746
C24	C	0.642428	-0.074150	0.223486
C25	C	0.727458	-0.045261	0.340118
C26	C	0.662902	-0.095502	0.143591
C27	C	0.768401	-0.087967	0.180333
C28	C	0.832956	-0.037725	0.376860
C29	C	1.225289	0.150799	0.426383
C30	C	1.261912	0.258591	0.439128
C31	C	1.342790	-0.004253	0.467260
C32	C	1.455047	0.003734	0.506317
C33	C	1.410355	0.430243	0.490785
C34	C	1.375931	0.328953	0.478805
C35	C	1.182271	0.289497	0.411409
C36	C	1.216677	0.390784	0.423378
C37	C	1.330721	0.461150	0.463067
C38	C	1.137043	0.421691	0.395660
C39	C	1.171449	0.522970	0.407634
C40	C	1.285489	0.593343	0.447325
C41	C	1.365127	0.562429	0.475041
C42	C	1.023002	0.351325	0.355978
C43	C	0.943368	0.382232	0.328261
C44	C	0.977770	0.483511	0.340226
C45	C	1.091810	0.553884	0.379918
C46	C	0.898132	0.514425	0.312510
C47	C	0.932538	0.615704	0.324484
C48	C	1.126216	0.655163	0.391891
N49	N	1.246569	0.044123	0.682511
C50	C	1.083190	0.793860	0.376915
C51	C	1.046582	0.686070	0.364174
N52	N	1.061917	-0.099457	0.120789
C53	C	0.913092	-0.215141	0.918269
C54	C	0.950442	-0.186110	1.031767
C55	C	1.136084	-0.041796	1.096339
C56	C	1.098748	-0.070812	0.982843
C57	C	0.987251	-0.157486	0.893816
C58	C	1.172907	-0.013156	0.958391
C59	C	1.135576	-0.042173	0.844906
C60	C	1.024085	-0.128845	0.755874
C61	C	0.949920	-0.186502	0.780331
C62	C	1.284406	0.073513	1.047421
C63	C	1.358565	0.131168	1.022968
C64	C	1.321231	0.102156	0.909481
C65	C	1.209741	0.015484	0.820448
C66	C	1.395396	0.159813	0.885023
C67	C	1.358065	0.130797	0.771538
C68	C	1.172409	-0.013533	0.706964
H69	H	0.406276	-0.041136	0.331454
H70	H	1.081613	-0.084105	0.634470
H71	H	1.313498	0.675809	0.457069
H72	H	1.503216	0.487535	0.523088
C73	C	0.844940	0.649703	0.293982
H74	H	0.772088	0.593287	0.268616
H75	H	0.874994	0.704466	0.360112
H76	H	0.833679	0.672315	0.234379
C77	C	0.983013	-0.160771	0.631040
H78	H	0.905994	-0.220651	0.581524
H79	H	0.982891	-0.106388	0.608263
H80	H	1.034810	-0.174990	0.626316
H81	H	0.805281	0.457122	0.280206
H82	H	0.859124	-0.257075	0.707838
C83	C	0.739119	0.071956	0.787993
H84	H	0.711829	0.083609	0.830319
H85	H	0.753616	0.018597	0.796680
H86	H	0.809628	0.133312	0.816139
H87	H	1.226867	0.028773	1.168837
H88	H	0.877916	0.011116	0.566558
C89	C	0.790446	-0.310480	0.820332
H90	H	0.751622	-0.340667	0.851146
H91	H	0.746069	-0.290500	0.765694
H92	H	0.797991	-0.359100	0.783750
C93	C	1.251660	0.732574	0.435543
H94	H	1.260738	0.797316	0.438696
H95	H	1.306480	0.740157	0.510292
H96	H	1.265139	0.708010	0.384550
H97	H	0.850514	0.324928	0.295949
C98	C	0.926487	-0.005959	0.505156
H99	H	0.992244	-0.004538	0.515589
H100	H	0.950492	0.060486	0.549275
H101	H	0.894427	-0.054248	0.529744
H102	H	0.785062	-0.105360	0.115277
C103	C	1.463531	0.294953	0.509291
H104	H	1.426712	0.224559	0.496485
H105	H	1.488297	0.303587	0.462239
H106	H	1.529621	0.335732	0.587975
C107	C	1.490571	0.639835	0.518691
H108	H	1.533077	0.606926	0.533487
H109	H	1.487348	0.664093	0.461896
H110	H	1.528685	0.696237	0.587637
H111	H	1.089417	0.232193	0.379097
H112	H	0.994995	0.268860	0.346238
H113	H	0.467695	-0.105193	0.091781
H114	H	1.449349	0.201737	1.095467
H115	H	1.418454	0.177745	0.751632
C116	C	0.400424	-0.068597	0.226218
H117	H	0.352728	-0.088841	0.145317
H118	H	0.360435	-0.118385	0.244430
H119	H	0.416526	-0.003652	0.263962
C120	C	0.569375	-0.127271	0.015301
H121	H	0.503611	-0.128703	0.004861
H122	H	0.601431	-0.079000	-0.009297
H123	H	0.545365	-0.193728	-0.028809
C124	C	0.868828	-0.249497	1.058648
H125	H	0.797070	-0.305255	0.989367
H126	H	0.905449	-0.275490	1.110610
H127	H	0.853593	-0.206838	1.092535
H128	H	1.314799	0.097132	1.139826
C129	C	1.518035	0.255145	0.982958
H130	H	1.529646	0.264170	1.054047
H131	H	1.576017	0.245744	0.986646
H132	H	1.524095	0.314344	0.968606
H133	H	0.840765	0.049841	0.711515
H134	H	0.523396	0.049980	0.687990
