data_functionalizedCrystal
_audit_creation_method	'MofGen! by Chris Wilmer'
_symmetry_space_group_name_H-M	'P1'
_symmetry_Int_Tables_number	1
_symmetry_cell_setting	triclinic
loop_
_symmetry_equiv_pos_as_xyz
  x,y,z
_cell_length_a	14.044220
_cell_length_b	16.992695
_cell_length_c	16.053802
_cell_angle_alpha	87.258926
_cell_angle_beta	92.810746
_cell_angle_gamma	91.928550
loop_
_atom_site_label
_atom_site_type_symbol
_atom_site_fract_x
_atom_site_fract_y
_atom_site_fract_z
O1	O	-1.275866	-0.187009	-0.069341
O2	O	-0.775866	0.312991	0.430659
O3	O	-0.999379	-0.180151	-0.069362
O4	O	-0.499379	0.319849	0.430638
O5	O	-1.136514	-0.069360	-0.069345
O6	O	-0.636514	0.430640	0.430655
O7	O	-1.138731	-0.297800	-0.069358
O8	O	-0.638731	0.202200	0.430642
O9	O	-1.128964	-0.075431	0.069513
O10	O	-0.628964	0.424569	0.569513
O11	O	-0.991829	-0.186221	0.069496
O12	O	-0.491829	0.313779	0.569496
O13	O	-1.268316	-0.193080	0.069517
O14	O	-0.768316	0.306920	0.569517
Zn15	Zn	-1.128874	-0.190615	0.091553
Zn16	Zn	-0.628874	0.309385	0.591553
Zn17	Zn	-1.138822	-0.182616	-0.091398
Zn18	Zn	-0.638822	0.317384	0.408602
O19	O	-1.131181	-0.303871	0.069500
O20	O	-0.631181	0.196129	0.569500
C21	C	-0.960062	-0.180184	0.000064
C22	C	-0.460062	0.319816	0.500064
C23	C	-0.854158	-0.171230	0.000056
C24	C	-0.354158	0.328770	0.500056
C25	C	-1.129887	-0.042984	0.000084
C26	C	-0.629887	0.457016	0.500084
C27	C	-1.121378	0.044656	0.000083
C28	C	-0.621378	0.544656	0.500083
C29	C	-1.307633	-0.193047	0.000089
C30	C	-0.807633	0.306953	0.500089
C31	C	-1.413537	-0.202001	0.000091
C32	C	-0.913537	0.297999	0.500091
C33	C	-0.660256	-0.154860	0.000074
C34	C	-0.160256	0.345140	0.500074
C35	C	-0.607434	-0.218367	0.000074
C36	C	-0.107434	0.281633	0.500074
C37	C	-0.499540	-0.209259	0.000083
C38	C	0.000460	0.290741	0.500083
C39	C	-0.768160	-0.163967	0.000064
C40	C	-0.268160	0.336033	0.500064
C41	C	-1.137808	-0.330247	0.000069
C42	C	-0.637808	0.169753	0.500069
C43	C	-1.146317	-0.417886	0.000065
C44	C	-0.646317	0.082114	0.500065
N45	N	-1.122091	-0.196073	0.216412
N46	N	-0.622091	0.303927	0.716412
C47	C	-1.203475	0.089154	0.000090
C48	C	-0.703475	0.589154	0.500090
C49	C	-1.195475	0.171500	0.000081
C50	C	-0.695475	0.671500	0.500081
C51	C	-1.105377	0.209347	0.000072
C52	C	-0.605377	0.709347	0.500072
C53	C	-1.023275	0.164843	0.000062
C54	C	-0.523275	0.664843	0.500062
C55	C	-1.031276	0.082498	0.000065
C56	C	-0.531276	0.582498	0.500065
C57	C	-1.072216	0.455265	0.000058
C58	C	-0.572216	0.955265	0.500058
C59	C	-1.064221	0.537616	0.000058
C60	C	-0.564221	1.037616	0.500058
C61	C	-1.236421	0.544267	0.000075
C62	C	-0.736421	1.044267	0.500075
C63	C	-1.244414	0.461920	0.000083
C64	C	-0.744414	0.961920	0.500083
C65	C	-1.162312	0.417424	0.000069
C66	C	-0.662312	0.917424	0.500069
N67	N	-1.097198	0.293518	0.000066
N68	N	-0.597198	0.793518	0.500066
N69	N	-1.170493	0.333254	0.000069
N70	N	-0.670493	0.833254	0.500069
N71	N	-1.145611	-0.177152	-0.216258
N72	N	-0.645611	0.322848	0.283742
C73	C	-1.180467	-0.148952	0.260114
C74	C	-0.680467	0.351048	0.760114
C75	C	-1.175732	-0.152778	0.347520
C76	C	-0.675732	0.347222	0.847520
C77	C	-1.112626	-0.203731	0.391223
C78	C	-0.612626	0.296269	0.891223
C79	C	-1.054244	-0.250855	0.347516
C80	C	-0.554244	0.249145	0.847516
C81	C	-1.058975	-0.247023	0.260111
C82	C	-0.558975	0.252977	0.760111
C83	C	-1.091960	-0.220444	0.652630
C84	C	-0.591960	0.279556	1.152630
C85	C	-1.087236	-0.224273	0.740041
C86	C	-0.587236	0.275727	1.240041
C87	C	-1.208722	-0.126196	0.740039
C88	C	-0.708722	0.373804	1.240039
C89	C	-1.213452	-0.122372	0.652633
C90	C	-0.713452	0.377628	1.152633
C91	C	-1.155066	-0.169493	0.608933
C92	C	-0.655066	0.330507	1.108933
N93	N	-1.107787	-0.207646	0.480566
N94	N	-0.607787	0.292354	0.980566
N95	N	-1.159901	-0.165574	0.519591
N96	N	-0.659901	0.334426	1.019591
H97	H	-0.643242	-0.279576	0.000066
H98	H	-0.143242	0.220424	0.500066
C99	C	-1.302581	0.047526	0.000103
C100	C	-0.802581	0.547526	0.500103
H101	H	-1.295590	-0.007890	0.000112
H102	H	-0.795590	0.492110	0.500112
H103	H	-1.339281	0.064502	-0.048316
H104	H	-0.839281	0.564502	0.451684
H105	H	-1.334008	0.060276	0.048536
H106	H	-0.834008	0.560276	0.548536
C107	C	-0.611890	-0.072176	0.000073
C108	C	-0.111890	0.427824	0.500073
H109	H	-0.544667	-0.076826	0.000070
H110	H	-0.044667	0.423174	0.500070
H111	H	-0.627947	-0.046458	0.048492
H112	H	-0.127947	0.453542	0.548492
H113	H	-0.633198	-0.042239	-0.048360
H114	H	-0.133198	0.457761	0.451640
C115	C	-1.285781	0.220445	0.000098
C116	C	-0.785781	0.720445	0.500098
H117	H	-1.340584	0.186110	0.000116
H118	H	-0.840584	0.686110	0.500116
H119	H	-1.288882	0.254820	-0.048325
H120	H	-0.788882	0.754820	0.451675
H121	H	-1.283598	0.250590	0.048527
H122	H	-0.783598	0.750590	0.548527
C123	C	-0.984797	-0.306877	0.395583
C124	C	-0.484797	0.193123	0.895583
H125	H	-0.950694	-0.334380	0.357036
H126	H	-0.450694	0.165620	0.857036
H127	H	-1.019685	-0.343609	0.429683
H128	H	-0.519685	0.156391	0.929683
H129	H	-0.941146	-0.277193	0.429676
H130	H	-0.441146	0.222807	0.929676
H131	H	-1.317781	0.431112	0.000091
H132	H	-0.817781	0.931112	0.500091
C133	C	-1.326726	0.593215	0.000079
C134	C	-0.826726	1.093215	0.500079
H135	H	-1.309061	0.647677	0.000068
H136	H	-0.809061	1.147677	0.500068
H137	H	-1.360785	0.578975	0.048502
H138	H	-0.860785	1.078975	0.548502
H139	H	-1.366040	0.583198	-0.048350
H140	H	-0.866040	1.083198	0.451650
C141	C	-0.965110	0.579246	0.000033
C142	C	-0.465110	1.079246	0.500033
H143	H	-0.917359	0.540953	0.000014
H144	H	-0.417359	1.040953	0.500014
H145	H	-0.955767	0.609119	0.048452
H146	H	-0.455767	1.109119	0.548452
H147	H	-0.961059	0.613343	-0.048400
H148	H	-0.461059	1.113343	0.451600
H149	H	-1.005362	0.419046	0.000046
H150	H	-0.505362	0.919046	0.500046
C151	C	-1.249890	-0.092911	0.212044
C152	C	-0.749890	0.407089	0.712044
H153	H	-1.244357	-0.097383	0.153729
H154	H	-0.744357	0.402617	0.653729
H155	H	-1.234791	-0.040199	0.226376
H156	H	-0.734791	0.459801	0.726376
H157	H	-1.313360	-0.106589	0.226363
H158	H	-0.813360	0.393411	0.726363
H159	H	-1.011438	-0.285394	0.224531
H160	H	-0.511438	0.214606	0.724531
H161	H	-0.964424	0.046269	0.000059
H162	H	-0.464424	0.546269	0.500059
H163	H	-0.949916	0.195665	0.000049
H164	H	-0.449916	0.695665	0.500049
H165	H	-1.223265	-0.114408	0.383101
H166	H	-0.723265	0.385592	0.883101
H167	H	-1.264837	-0.080883	0.617051
H168	H	-0.764837	0.419117	1.117051
H169	H	-1.256256	-0.087831	0.775627
H170	H	-0.756256	0.412169	1.275627
H171	H	-1.035845	-0.265768	0.775620
H172	H	-0.535845	0.234232	1.275620
C173	C	-1.027747	-0.272282	0.604571
C174	C	-0.527747	0.227718	1.104571
H175	H	-0.989496	-0.303181	0.643120
H176	H	-0.489496	0.196819	1.143120
H177	H	-0.987775	-0.239641	0.570485
H178	H	-0.487775	0.260359	1.070485
H179	H	-1.066361	-0.306019	0.570466
H180	H	-0.566361	0.193981	1.070466
