data_functionalizedCrystal
_audit_creation_method	'MofGen! by Chris Wilmer'
_symmetry_space_group_name_H-M	'P1'
_symmetry_Int_Tables_number	1
_symmetry_cell_setting	triclinic
loop_
_symmetry_equiv_pos_as_xyz
  x,y,z
_cell_length_a	13.032831
_cell_length_b	13.897448
_cell_length_c	13.033109
_cell_angle_alpha	97.153140
_cell_angle_beta	76.665514
_cell_angle_gamma	82.822399
loop_
_atom_site_label
_atom_site_type_symbol
_atom_site_fract_x
_atom_site_fract_y
_atom_site_fract_z
Zn1	Zn	1.700113	-0.678106	-0.806401
Zn2	Zn	1.677445	-0.815943	-0.628782
Zn3	Zn	1.499937	-0.631189	-0.606295
Zn4	Zn	1.522460	-0.815858	-0.783826
O5	O	1.599989	-0.735274	-0.706326
O6	O	1.845742	-0.716060	-0.801698
O7	O	1.634986	-0.771836	-0.477168
O8	O	1.526552	-0.502443	-0.632875
O9	O	1.829088	-0.817329	-0.671203
O10	O	1.673620	-0.536912	-0.779893
O11	O	1.504572	-0.636098	-0.460646
O12	O	1.354289	-0.636016	-0.610986
O13	O	1.564938	-0.817184	-0.935453
O14	O	1.370836	-0.771691	-0.741418
O15	O	1.695459	-0.715978	-0.952038
O16	O	1.656825	-0.950902	-0.649313
O17	O	1.542958	-0.950840	-0.763223
C18	C	1.324023	-0.698754	-0.671313
C19	C	1.205967	-0.683157	-0.656359
C20	C	1.161536	-0.743414	-0.714130
C21	C	1.039519	-0.727296	-0.698676
C22	C	1.599907	-0.985874	-0.706286
C23	C	1.599974	-1.093100	-0.706316
C24	C	1.600094	-1.289418	-0.706397
C25	C	1.600025	-1.180173	-0.706355
C26	C	1.877032	-0.771938	-0.741477
C27	C	1.995092	-0.787562	-0.756456
C28	C	1.635240	-0.771805	-0.983361
C29	C	1.650262	-0.787373	-1.101417
C30	C	1.600102	-0.483702	-0.706394
C31	C	1.600151	-0.376498	-0.706423
C32	C	1.592433	-0.727152	-1.145876
C33	C	1.607957	-0.743241	-1.267892
C34	C	1.564936	-0.698824	-0.430376
C35	C	1.550120	-0.683012	-0.312347
H36	H	0.987229	-0.663766	-0.637775
N37	N	1.230791	-0.827565	-0.794798
H38	H	1.221226	-0.820184	-0.868299
H39	H	1.308108	-0.827107	-0.794308
H40	H	1.047382	-0.851083	-0.817368
N41	N	1.136710	-0.599017	-0.575678
H42	H	1.059361	-0.599433	-0.576070
H43	H	1.146373	-0.606463	-0.502227
N44	N	1.731075	-0.871440	-1.170646
H45	H	1.767535	-0.909417	-1.124213
H46	H	1.693634	-0.916380	-1.211171
H47	H	1.531426	-0.663689	-1.093605
H48	H	1.668963	-0.806713	-1.320159
H49	H	1.489110	-0.619542	-1.260082
