data_functionalizedCrystal
_audit_creation_method	'MofGen! by Chris Wilmer'
_symmetry_space_group_name_H-M	'P1'
_symmetry_Int_Tables_number	1
_symmetry_cell_setting	triclinic
loop_
_symmetry_equiv_pos_as_xyz
  x,y,z
_cell_length_a	14.519709
_cell_length_b	10.654550
_cell_length_c	9.130313
_cell_angle_alpha	90.004369
_cell_angle_beta	89.997908
_cell_angle_gamma	84.082538
loop_
_atom_site_label
_atom_site_type_symbol
_atom_site_fract_x
_atom_site_fract_y
_atom_site_fract_z
O1	O	-1.224720	-0.164623	-0.121608
O2	O	-0.724720	0.335377	0.378392
O3	O	-0.956343	-0.184009	-0.121653
O4	O	-0.456343	0.315991	0.378347
O5	O	-1.096702	0.008483	-0.121620
O6	O	-0.596702	0.508483	0.378380
O7	O	-1.084361	-0.357115	-0.121641
O8	O	-0.584361	0.142885	0.378359
O9	O	-1.096692	0.008488	0.121979
O10	O	-0.596692	0.508488	0.621979
O11	O	-0.956334	-0.184004	0.121946
O12	O	-0.456334	0.315996	0.621946
O13	O	-1.224710	-0.164617	0.121991
O14	O	-0.724710	0.335383	0.621991
Cu15	Cu	-1.090521	-0.174310	0.144211
Cu16	Cu	-0.590521	0.325690	0.644211
Cu17	Cu	-1.090532	-0.174317	-0.143873
Cu18	Cu	-0.590532	0.325683	0.356127
O19	O	-1.084351	-0.357109	0.121958
O20	O	-0.584351	0.142891	0.621958
C21	C	-1.095791	0.055275	0.000178
C22	C	-0.595791	0.555275	0.500178
C23	C	-1.093080	0.194692	0.000176
C24	C	-0.593080	0.694692	0.500176
C25	C	-0.921974	-0.183103	0.000141
C26	C	-0.421974	0.316897	0.500141
C27	C	-0.819579	-0.180396	0.000124
C28	C	-0.319579	0.319604	0.500124
C29	C	-1.259079	-0.165524	0.000194
C30	C	-0.759079	0.334476	0.500194
C31	C	-1.361475	-0.168231	0.000201
C32	C	-0.861475	0.331769	0.500201
C33	C	-0.444631	-0.170428	0.000191
C34	C	0.055369	0.329572	0.500191
C35	C	-0.548954	-0.173196	0.000172
C36	C	-0.048954	0.326804	0.500172
C37	C	-0.632102	-0.175412	0.000156
C38	C	-0.132102	0.324588	0.500156
C39	C	-0.736431	-0.178180	0.000140
C40	C	-0.236431	0.321820	0.500140
C41	C	-1.085262	-0.403901	0.000156
C42	C	-0.585262	0.096099	0.500156
C43	C	-1.087973	-0.543318	0.000150
C44	C	-0.587973	-0.043318	0.500150
N45	N	-1.090520	-0.174305	0.346834
N46	N	-0.590520	0.325695	0.846834
C47	C	-1.175721	0.274972	0.000189
C48	C	-0.675721	0.774972	0.500189
C49	C	-1.173168	0.405968	0.000171
C50	C	-0.673168	0.905968	0.500171
C51	C	-1.005326	0.376391	0.000132
C52	C	-0.505326	0.876391	0.500132
C53	C	-1.007880	0.245397	0.000140
C54	C	-0.507880	0.745397	0.500140
N55	N	-1.090541	-0.174312	-0.346496
N56	N	-0.590541	0.325688	0.153504
C57	C	-1.152692	-0.089105	0.423500
C58	C	-0.652692	0.410895	0.923500
C59	C	-1.152701	-0.089105	0.576837
C60	C	-0.652701	0.410895	1.076837
C61	C	-1.028362	-0.259516	0.576827
C62	C	-0.528362	0.240484	1.076827
C63	C	-1.028350	-0.259509	0.423493
C64	C	-0.528350	0.240491	0.923493
H65	H	-1.245096	0.233692	0.000215
H66	H	-0.745096	0.733692	0.500215
C67	C	-1.264080	0.494272	0.000198
C68	C	-0.764080	0.994272	0.500198
N69	N	-1.332559	0.560782	0.000222
N70	N	-0.832559	1.060782	0.500222
C71	C	-0.959995	-0.353297	0.339156
C72	C	-0.459995	0.146703	0.839156
N73	N	-0.908526	-0.423955	0.275632
N74	N	-0.408526	0.076045	0.775632
C75	C	-1.221073	0.004632	0.339179
C76	C	-0.721073	0.504632	0.839179
N77	N	-1.272577	0.075241	0.275673
N78	N	-0.772577	0.575241	0.775673
C79	C	-1.221087	0.004632	0.661163
C80	C	-0.721087	0.504632	1.161163
N81	N	-1.272596	0.075243	0.724676
N82	N	-0.772596	0.575243	1.224676
C83	C	-0.911611	0.432181	0.000121
C84	C	-0.411611	0.932181	0.500121
N85	N	-0.841022	0.474200	0.000124
N86	N	-0.341022	0.974200	0.500124
C87	C	-0.959977	-0.353233	0.661168
C88	C	-0.459977	0.146767	1.161168
N89	N	-0.908468	-0.423822	0.724691
N90	N	-0.408468	0.076178	1.224691
H91	H	-0.940579	0.180029	0.000125
H92	H	-0.440579	0.680029	0.500125
