data_functionalizedCrystal
_audit_creation_method	'MofGen! by Chris Wilmer'
_symmetry_space_group_name_H-M	'P1'
_symmetry_Int_Tables_number	1
_symmetry_cell_setting	triclinic
loop_
_symmetry_equiv_pos_as_xyz
  x,y,z
_cell_length_a	17.077404
_cell_length_b	11.169416
_cell_length_c	11.169409
_cell_angle_alpha	90.030816
_cell_angle_beta	90.023815
_cell_angle_gamma	90.010565
loop_
_atom_site_label
_atom_site_type_symbol
_atom_site_fract_x
_atom_site_fract_y
_atom_site_fract_z
Zn1	Zn	1.200156	-0.477703	0.678659
Zn2	Zn	1.200082	-0.678444	0.477981
Zn3	Zn	1.068878	-0.477774	0.477982
Zn4	Zn	1.068885	-0.678344	0.678615
O5	O	1.134501	-0.578066	0.578309
O6	O	1.309994	-0.504344	0.652057
O7	O	1.182644	-0.651896	0.310031
O8	O	1.086321	-0.309815	0.504621
O9	O	1.309939	-0.651827	0.504620
O10	O	1.182770	-0.309763	0.652058
O11	O	1.086249	-0.504465	0.310032
O12	O	0.959032	-0.504368	0.504578
O13	O	1.086332	-0.651657	0.846570
O14	O	0.959037	-0.651726	0.651982
O15	O	1.182777	-0.504247	0.846603
O16	O	1.182651	-0.846380	0.504577
O17	O	1.086260	-0.846307	0.651981
C18	C	0.930553	-0.578045	0.578276
C19	C	0.843303	-0.578064	0.578290
C20	C	1.134469	-0.889891	0.578300
C21	C	1.134528	-1.023291	0.578336
C22	C	0.802336	-0.654909	0.654920
C23	C	0.720355	-0.654912	0.654940
C24	C	0.679344	-0.578074	0.578322
C25	C	0.720316	-0.501221	0.501688
C26	C	0.802295	-0.501213	0.501676
C27	C	0.549446	-0.501245	0.501717
C28	C	0.467462	-0.501254	0.501728
C29	C	0.467506	-0.654943	0.654981
C30	C	0.549485	-0.654935	0.654969
C31	C	0.590453	-0.578083	0.578333
C32	C	1.339245	-0.578089	0.578343
C33	C	1.426495	-0.578099	0.578358
C34	C	1.134564	-0.577933	0.891352
C35	C	1.134590	-0.577877	1.024752
C36	C	1.134553	-0.265024	0.578345
C37	C	1.134576	-0.131624	0.578360
C38	C	1.134483	-0.578112	0.266484
C39	C	1.134608	-0.577831	0.133085
H40	H	0.687004	-0.717488	0.717338
H41	H	0.835722	-0.717483	0.717308
H42	H	0.582799	-0.438653	0.439323
H43	H	0.582875	-0.717510	0.717351
C44	C	0.422890	-0.738248	0.738148
C45	C	0.342319	-0.721785	0.721792
C46	C	0.301191	-0.798494	0.798388
H47	H	0.436216	-0.818915	0.720519
H48	H	0.436312	-0.720764	0.818840
H49	H	0.328902	-0.739278	0.641118
H50	H	0.328970	-0.641134	0.739429
H51	H	0.314613	-0.781010	0.879080
H52	H	0.314524	-0.879156	0.780752
H53	H	0.246520	-0.787327	0.787308
C54	C	0.423017	-0.417891	0.418377
C55	C	0.442911	-0.443827	0.299568
C56	C	0.401985	-0.367047	0.222764
H57	H	0.368318	-0.428846	0.429218
H58	H	0.436473	-0.337250	0.436019
H59	H	0.429449	-0.524449	0.281932
H60	H	0.497603	-0.432865	0.288690
H61	H	0.415441	-0.286406	0.240406
H62	H	0.347287	-0.378008	0.233615
H63	H	0.415482	-0.384626	0.142144
H64	H	0.686918	-0.438654	0.439310
H65	H	0.835650	-0.438632	0.439282
