data_functionalizedCrystal
_audit_creation_method	'MofGen! by Chris Wilmer'
_symmetry_space_group_name_H-M	'P1'
_symmetry_Int_Tables_number	1
_symmetry_cell_setting	triclinic
loop_
_symmetry_equiv_pos_as_xyz
  x,y,z
_cell_length_a	27.732048
_cell_length_b	27.732048
_cell_length_c	26.809956
_cell_angle_alpha	90.000636
_cell_angle_beta	90.003258
_cell_angle_gamma	82.642655
loop_
_atom_site_label
_atom_site_type_symbol
_atom_site_fract_x
_atom_site_fract_y
_atom_site_fract_z
O1	O	-0.640931	-0.057510	-0.041421
O2	O	-0.500138	-0.066256	-0.041436
O3	O	-0.574907	0.008514	-0.041419
O4	O	-0.566162	-0.132280	-0.041439
O5	O	-0.574893	0.008502	0.041541
O6	O	-0.500123	-0.066267	0.041523
O7	O	-0.640917	-0.057522	0.041539
Zn8	Zn	-0.570518	-0.061896	0.054702
Zn9	Zn	-0.570536	-0.061881	-0.054600
O10	O	-0.566147	-0.132291	0.041521
C11	C	-0.482124	-0.066078	0.000041
C12	C	-0.428469	-0.065525	0.000036
C13	C	-0.574716	0.026515	0.000062
C14	C	-0.574164	0.080170	0.000066
C15	C	-0.658931	-0.057699	0.000060
C16	C	-0.712586	-0.058252	0.000062
C17	C	-0.089654	-0.106229	0.000051
C18	C	0.112006	-0.104178	0.000056
O19	O	0.143262	-0.141398	0.000073
N20	N	0.131130	-0.059843	0.000062
C21	C	0.099835	-0.016017	0.000069
O22	O	0.120728	0.021740	0.000079
C23	C	-0.101824	-0.018068	0.000068
C24	C	-0.120944	-0.062407	0.000057
C25	C	-0.108775	-0.150563	0.000042
C26	C	-0.159187	-0.151076	0.000038
C27	C	-0.190477	-0.107253	0.000044
C28	C	-0.171356	-0.062919	0.000054
C29	C	-0.133117	0.025757	0.000079
C30	C	-0.183535	0.025240	0.000080
C31	C	-0.202655	-0.019098	0.000069
C32	C	-0.253059	-0.019609	0.000056
N33	N	-0.272183	-0.063944	0.000050
C34	C	-0.240892	-0.107766	0.000044
C35	C	0.205709	-0.014943	0.000069
C36	C	0.256124	-0.014430	0.000068
C37	C	0.268291	-0.102591	0.000056
C38	C	0.217876	-0.103104	0.000053
C39	C	0.186585	-0.059278	0.000063
C40	C	-0.346761	-0.108839	0.000036
C41	C	-0.397178	-0.109347	0.000030
C42	C	-0.409341	-0.021186	0.000044
C43	C	-0.358929	-0.020678	0.000048
C44	C	-0.327639	-0.064508	0.000045
O45	O	-0.284343	0.017592	0.000045
O46	O	-0.261794	-0.145518	0.000045
C47	C	-0.039242	-0.105716	0.000055
C48	C	-0.020120	-0.061382	0.000065
C49	C	-0.051411	-0.017560	0.000071
C50	C	0.030294	-0.060869	0.000065
C51	C	0.061585	-0.104691	0.000059
C52	C	0.042461	-0.149026	0.000053
C53	C	-0.007951	-0.149539	0.000049
C54	C	-0.032287	0.026775	0.000077
C55	C	0.018125	0.027284	0.000080
C56	C	0.049416	-0.016538	0.000074
C57	C	-0.566338	-0.150292	0.000039
C58	C	-0.566891	-0.203947	0.000031
N59	N	-0.570509	-0.061906	0.129298
C60	C	-0.614867	0.418985	0.000045
C61	C	-0.612816	0.620645	0.000038
O62	O	-0.650037	0.651900	0.000021
N63	N	-0.568481	0.639768	0.000034
C64	C	-0.524656	0.608474	0.000028
O65	O	-0.486899	0.629367	0.000019
C66	C	-0.526707	0.406815	0.000031
C67	C	-0.571045	0.387694	0.000041
C68	C	-0.659202	0.399864	0.000054
C69	C	-0.659714	0.349452	0.000059
C70	C	-0.615892	0.318161	0.000054
C71	C	-0.571557	0.337282	0.000045
C72	C	-0.482882	0.375521	0.000022
C73	C	-0.483399	0.325104	0.000021
C74	C	-0.527737	0.305983	0.000031
C75	C	-0.528247	0.255580	0.000045
N76	N	-0.572583	0.236456	0.000050
C77	C	-0.616405	0.267747	0.000054
C78	C	-0.523582	0.714348	0.000027
C79	C	-0.523069	0.764762	0.000027
C80	C	-0.611230	0.776930	0.000036
C81	C	-0.611742	0.726514	0.000040
C82	C	-0.567917	0.695224	0.000031
C83	C	-0.617477	0.161878	0.000064
C84	C	-0.617986	0.111461	0.000071
C85	C	-0.529825	0.099298	0.000059
C86	C	-0.529316	0.149710	0.000055
C87	C	-0.573147	0.180999	0.000056
O88	O	-0.491047	0.224296	0.000057
O89	O	-0.654156	0.246844	0.000053
C90	C	-0.614355	0.469397	0.000041
C91	C	-0.570021	0.488518	0.000032
C92	C	-0.526198	0.457228	0.000027
C93	C	-0.569508	0.538933	0.000032
C94	C	-0.613330	0.570223	0.000036
C95	C	-0.657665	0.551100	0.000041
C96	C	-0.658177	0.500688	0.000045
C97	C	-0.481863	0.476351	0.000023
C98	C	-0.481355	0.526764	0.000019
C99	C	-0.525177	0.558054	0.000023
N100	N	-0.570549	-0.061867	-0.129196
C101	C	-0.603640	-0.028781	0.473932
C102	C	-0.603652	-0.028774	0.682810
O103	O	-0.631801	-0.000613	0.709820
N104	N	-0.570539	-0.061870	0.708925
C105	C	-0.537419	-0.094969	0.682818
O106	O	-0.509252	-0.123116	0.709824
C107	C	-0.537406	-0.094974	0.473941
C108	C	-0.570524	-0.061878	0.447829
C109	C	-0.636755	0.004312	0.447819
C110	C	-0.636754	0.004308	0.395603
C111	C	-0.603637	-0.028789	0.369500
C112	C	-0.570522	-0.061882	0.395612
C113	C	-0.504284	-0.128070	0.447835
C114	C	-0.504283	-0.128067	0.395613
C115	C	-0.537401	-0.094972	0.369500
C116	C	-0.537405	-0.094983	0.317293
N117	N	-0.570517	-0.061887	0.291177
C118	C	-0.603633	-0.028790	0.317281
C119	C	-0.537429	-0.094965	0.792481
C120	C	-0.537433	-0.094964	0.844700
C121	C	-0.603665	-0.028768	0.844689
C122	C	-0.603663	-0.028772	0.792469
C123	C	-0.570542	-0.061868	0.766366
C124	C	-0.603628	-0.028801	0.207623
C125	C	-0.603625	-0.028809	0.155402
C126	C	-0.537392	-0.095003	0.155418
C127	C	-0.537396	-0.094997	0.207635
C128	C	-0.570516	-0.061892	0.233735
O129	O	-0.509266	-0.123126	0.290250
O130	O	-0.631789	-0.000640	0.290266
C131	C	-0.603642	-0.028777	0.526149
C132	C	-0.570527	-0.061870	0.552261
C133	C	-0.537410	-0.094968	0.526158
C134	C	-0.570531	-0.061870	0.604480
C135	C	-0.603647	-0.028773	0.630584
C136	C	-0.636759	0.004324	0.604468
C137	C	-0.636758	0.004320	0.552252
C138	C	-0.504298	-0.128064	0.552273
C139	C	-0.504303	-0.128058	0.604489
C140	C	-0.537419	-0.094961	0.630593
H141	H	-0.412743	-0.145454	0.000021
O142	O	-0.177695	-0.194179	-0.000036
C143	C	-0.182718	-0.269674	-0.043039
C144	C	-0.161725	-0.220877	-0.043014
H145	H	-0.169823	-0.291269	-0.077788
H146	H	-0.169782	-0.291344	-0.008347
H147	H	-0.224126	-0.262516	-0.043015
H148	H	-0.120317	-0.227991	-0.043055
H149	H	-0.174699	-0.199222	-0.077703
O150	O	-0.486259	0.168309	0.000138
C151	C	-0.434515	0.218190	0.043084
C152	C	-0.483290	0.197157	0.043064
H153	H	-0.432103	0.241527	0.077780
H154	H	-0.403264	0.187182	0.043116
H155	H	-0.432083	0.241463	0.008345
H156	H	-0.485770	0.173890	0.077796
H157	H	-0.514517	0.228188	0.043006
O158	O	0.274637	0.028671	0.000006
C159	C	0.279671	0.104174	-0.042975
C160	C	0.258666	0.055383	-0.042964
H161	H	0.266775	0.125781	-0.077718
H162	H	0.266743	0.125837	-0.008277
H163	H	0.321078	0.097007	-0.042952
H164	H	0.217259	0.062506	-0.043005
H165	H	0.271632	0.033736	-0.077660
O166	O	-0.660085	0.192218	0.000001
C167	C	-0.735278	0.218052	-0.042978
C168	C	-0.687050	0.183656	-0.042968
H169	H	-0.757089	0.211149	-0.077720
H170	H	-0.757140	0.211133	-0.008279
H171	H	-0.727293	0.257368	-0.042958
H172	H	-0.694992	0.144328	-0.043005
H173	H	-0.665203	0.190618	-0.077664
H174	H	-0.446777	0.391080	0.000011
H175	H	-0.510471	-0.121919	0.865958
O176	O	-0.078335	-0.193105	-0.000034
C177	C	-0.014391	-0.243707	-0.043048
C178	C	-0.048824	-0.195502	-0.043012
H179	H	0.009471	-0.245665	-0.077797
H180	H	0.009556	-0.245693	-0.008356
H181	H	-0.036737	-0.275468	-0.043031
H182	H	-0.026516	-0.163713	-0.043047
H183	H	-0.072772	-0.193558	-0.077701
O184	O	-0.701290	0.482198	0.000029
C185	C	-0.788678	0.499606	0.000067
C186	C	-0.739885	0.520605	0.000075
H187	H	-0.819895	0.530648	0.000115
H188	H	-0.791165	0.476326	-0.034658
H189	H	-0.791095	0.476292	0.034778
H190	H	-0.737435	0.543941	-0.034612
H191	H	-0.737419	0.543858	0.034824
O192	O	-0.505271	-0.127217	0.130078
C193	C	-0.476286	-0.211462	0.114114
C194	C	-0.512700	-0.175036	0.142836
H195	H	-0.482273	-0.250132	0.124427
H196	H	-0.481976	-0.205816	0.072302
H197	H	-0.437625	-0.205400	0.124377
H198	H	-0.551377	-0.181076	0.132616
H199	H	-0.506968	-0.180691	0.184642
H200	H	0.202311	-0.139207	0.000047
O201	O	-0.653831	0.807281	-0.000029
C202	C	-0.729010	0.833136	-0.043028
C203	C	-0.680790	0.798726	-0.043004
H204	H	-0.750815	0.826238	-0.077775
H205	H	-0.750882	0.826224	-0.008333
H206	H	-0.721011	0.872447	-0.043006
H207	H	-0.688745	0.759402	-0.043044
H208	H	-0.658932	0.805679	-0.077696
O209	O	0.072911	-0.191564	-0.000019
C210	C	0.136880	-0.242150	-0.043014
C211	C	0.102429	-0.193957	-0.042992
H212	H	0.160747	-0.244105	-0.077759
H213	H	0.160820	-0.244120	-0.008318
H214	H	0.114548	-0.273922	-0.042995
H215	H	0.124722	-0.162158	-0.043028
H216	H	0.078487	-0.192030	-0.077685
O217	O	0.036615	0.070400	0.000111
C218	C	0.019212	0.157789	0.000103
C219	C	-0.001790	0.108997	0.000074
H220	H	-0.011829	0.189007	0.000062
H221	H	0.042490	0.160261	0.034834
H222	H	0.042528	0.160218	-0.034603
H223	H	-0.025128	0.106535	0.034756
H224	H	-0.025041	0.106546	-0.034680
O225	O	-0.668829	0.036553	0.526872
C226	C	-0.679502	0.102773	0.468064
C227	C	-0.643148	0.066244	0.496738
H228	H	-0.658753	0.126794	0.443702
H229	H	-0.703541	0.082193	0.443544
H230	H	-0.703129	0.126398	0.495750
H231	H	-0.619489	0.042609	0.469088
H232	H	-0.619143	0.086854	0.521266
O233	O	-0.635749	0.003436	0.130090
C234	C	-0.664688	0.087711	0.114235
C235	C	-0.628276	0.051231	0.142899
H236	H	-0.658666	0.126361	0.124589
H237	H	-0.659031	0.082108	0.072414
H238	H	-0.703350	0.081666	0.124510
H239	H	-0.589599	0.057254	0.132667
H240	H	-0.633975	0.056843	0.184714
O241	O	-0.062727	0.069316	0.000012
C242	C	-0.126678	0.119927	-0.042987
C243	C	-0.092244	0.071724	-0.042966
H244	H	-0.150544	0.121895	-0.077737
H245	H	-0.150621	0.121902	-0.008296
H246	H	-0.104334	0.151690	-0.042959
H247	H	-0.114549	0.039934	-0.043012
H248	H	-0.068299	0.069792	-0.077655
H249	H	-0.510457	-0.121917	0.771232
O250	O	-0.440857	0.294661	0.000081
C251	C	-0.390242	0.230705	0.043069
C252	C	-0.438443	0.265144	0.043057
H253	H	-0.388270	0.206839	0.077817
H254	H	-0.388277	0.206763	0.008376
H255	H	-0.358477	0.253046	0.043038
H256	H	-0.470235	0.242842	0.043106
H257	H	-0.440365	0.289088	0.077747
O258	O	-0.487227	0.068945	-0.000015
C259	C	-0.412064	0.043086	-0.043030
C260	C	-0.460282	0.077498	-0.042997
H261	H	-0.390269	0.049982	-0.077783
H262	H	-0.390179	0.049997	-0.008342
H263	H	-0.420064	0.003776	-0.043005
H264	H	-0.452326	0.116821	-0.043041
H265	H	-0.482152	0.070545	-0.077683
O266	O	-0.472110	-0.160143	0.629907
C267	C	-0.405992	-0.170878	0.688836
C268	C	-0.442433	-0.134495	0.660094
H269	H	-0.381982	-0.150156	0.713241
H270	H	-0.426647	-0.194880	0.713319
H271	H	-0.382346	-0.194541	0.661194
H272	H	-0.466089	-0.110800	0.687699
H273	H	-0.421749	-0.110527	0.635603
O274	O	-0.702827	0.330962	0.000042
C275	C	-0.790215	0.348370	0.000079
C276	C	-0.741422	0.369369	0.000088
H277	H	-0.821432	0.379412	0.000126
H278	H	-0.792701	0.325090	-0.034647
H279	H	-0.792633	0.325056	0.034789
H280	H	-0.738972	0.392705	-0.034599
H281	H	-0.738956	0.392622	0.034837
H282	H	-0.654093	0.095896	0.000080
O283	O	-0.700190	0.581569	0.000022
C284	C	-0.738459	0.664634	0.000046
C285	C	-0.690268	0.630180	0.000060
H286	H	-0.730454	0.703943	0.000088
H287	H	-0.760309	0.657760	-0.034678
H288	H	-0.760296	0.657700	0.034758
H289	H	-0.668393	0.637093	-0.034628
H290	H	-0.668456	0.637061	0.034808
O291	O	-0.479956	0.783252	0.000001
C292	C	-0.392567	0.765849	0.000018
C293	C	-0.441359	0.744847	0.000039
H294	H	-0.361349	0.734809	0.000059
H295	H	-0.390094	0.789129	-0.034710
H296	H	-0.390140	0.789164	0.034727
H297	H	-0.443820	0.721510	-0.034646
H298	H	-0.443812	0.721595	0.034790
O299	O	-0.026581	-0.192577	0.000104
C300	C	-0.076407	-0.244349	0.043080
C301	C	-0.055354	-0.195585	0.043076
H302	H	-0.099667	-0.246801	0.077824
H303	H	-0.099737	-0.246795	0.008383
H304	H	-0.045371	-0.275572	0.043051
H305	H	-0.086359	-0.164334	0.043123
H306	H	-0.032011	-0.193181	0.077770
H307	H	-0.630630	-0.001820	0.865951
O308	O	-0.481019	0.683937	-0.000067
C309	C	-0.430439	0.619943	-0.043033
C310	C	-0.478654	0.654360	-0.042998
H311	H	-0.428516	0.596014	-0.077734
H312	H	-0.398650	0.642253	-0.043067
H313	H	-0.428472	0.596058	-0.008299
H314	H	-0.480668	0.678252	-0.077726
H315	H	-0.510420	0.632020	-0.042938
O316	O	-0.438238	0.545254	-0.000012
C317	C	-0.350850	0.527850	-0.000002
C318	C	-0.399642	0.506848	0.000028
H319	H	-0.319632	0.496810	0.000041
H320	H	-0.348379	0.551126	-0.034732
H321	H	-0.348420	0.551169	0.034705
H322	H	-0.402105	0.483508	-0.034655
H323	H	-0.402092	0.483600	0.034781
O324	O	-0.439304	0.445940	-0.000068
C325	C	-0.388725	0.381941	-0.043028
C326	C	-0.436939	0.416359	-0.042996
H327	H	-0.386801	0.358009	-0.077726
H328	H	-0.356935	0.404251	-0.043064
H329	H	-0.386759	0.358060	-0.008291
H330	H	-0.438952	0.440248	-0.077727
H331	H	-0.468706	0.394020	-0.042934
H332	H	-0.321291	-0.144530	0.000035
O333	O	-0.472110	-0.160265	0.526998
C334	C	-0.406403	-0.225905	0.532533
C335	C	-0.442837	-0.189467	0.561216
H336	H	-0.382719	-0.249518	0.560186
H337	H	-0.427063	-0.249947	0.508101
H338	H	-0.382430	-0.205199	0.508072
H339	H	-0.466819	-0.210134	0.585705
H340	H	-0.422146	-0.165425	0.585617
O341	O	-0.635735	0.003403	0.232996
C342	C	-0.646534	0.069481	0.291965
C343	C	-0.610119	0.033049	0.263252
H344	H	-0.625838	0.093452	0.316441
H345	H	-0.670194	0.093165	0.264348
H346	H	-0.670535	0.048768	0.316388
H347	H	-0.586087	0.053722	0.238828
H348	H	-0.586493	0.009365	0.290895
O349	O	-0.668873	0.036586	0.370333
C350	C	-0.697762	0.120898	0.354614
C351	C	-0.661353	0.084353	0.383204
H352	H	-0.691701	0.159525	0.365018
H353	H	-0.692141	0.115350	0.312781
H354	H	-0.736425	0.114868	0.364904
H355	H	-0.622675	0.090360	0.372956
H356	H	-0.667016	0.089910	0.425030
O357	O	-0.668948	0.036398	0.473227
C358	C	-0.735074	0.047145	0.532137
C359	C	-0.698629	0.010755	0.503409
H360	H	-0.759088	0.026426	0.556539
H361	H	-0.714422	0.071149	0.556623
H362	H	-0.758715	0.070803	0.504486
H363	H	-0.674978	-0.012935	0.531024
H364	H	-0.719311	-0.013216	0.478916
H365	H	0.293777	-0.138273	0.000051
O366	O	-0.635850	0.003426	0.767182
C367	C	-0.701563	0.069062	0.772696
C368	C	-0.665130	0.032630	0.801391
H369	H	-0.725252	0.092676	0.800342
H370	H	-0.680901	0.093104	0.748267
H371	H	-0.725530	0.048351	0.748230
H372	H	-0.641153	0.053302	0.825884
H373	H	-0.685822	0.008589	0.825789
H374	H	-0.510433	-0.121951	0.228896
O375	O	-0.472091	-0.160267	0.370335
C376	C	-0.406376	-0.225901	0.375862
C377	C	-0.442813	-0.189469	0.404550
H378	H	-0.382689	-0.249513	0.403513
H379	H	-0.427035	-0.249944	0.351428
H380	H	-0.382407	-0.205189	0.351402
H381	H	-0.466791	-0.210141	0.429038
H382	H	-0.422124	-0.165426	0.428952
O383	O	-0.668861	0.036523	0.629854
C384	C	-0.679635	0.102588	0.688839
C385	C	-0.643232	0.066158	0.660109
H386	H	-0.658928	0.126551	0.713315
H387	H	-0.703299	0.126282	0.661233
H388	H	-0.703632	0.081874	0.713265
H389	H	-0.619203	0.086832	0.635682
H390	H	-0.619602	0.042465	0.687741
H391	H	-0.117558	0.061861	0.000088
H392	H	0.180236	0.020747	0.000077
H393	H	-0.209009	0.060929	0.000089
H394	H	-0.434827	0.014492	0.000047
O395	O	-0.340327	0.022378	-0.000034
C396	C	-0.290442	0.074116	-0.042978
C397	C	-0.311481	0.025343	-0.042960
H398	H	-0.267108	0.076525	-0.077674
H399	H	-0.321448	0.105369	-0.043008
H400	H	-0.267167	0.076546	-0.008239
H401	H	-0.334750	0.022865	-0.077693
H402	H	-0.280452	-0.005887	-0.042903
H403	H	-0.694889	0.425336	0.000056
H404	H	-0.647846	0.710950	0.000047
H405	H	-0.477317	-0.155019	0.469089
