data_functionalizedCrystal
_audit_creation_method	'MofGen! by Chris Wilmer'
_symmetry_space_group_name_H-M	'P1'
_symmetry_Int_Tables_number	1
_symmetry_cell_setting	triclinic
loop_
_symmetry_equiv_pos_as_xyz
  x,y,z
_cell_length_a	27.731993
_cell_length_b	27.732048
_cell_length_c	14.472310
_cell_angle_alpha	89.993924
_cell_angle_beta	89.998550
_cell_angle_gamma	82.631525
loop_
_atom_site_label
_atom_site_type_symbol
_atom_site_fract_x
_atom_site_fract_y
_atom_site_fract_z
O1	O	0.640951	0.057388	-0.076602
O2	O	0.974284	0.390721	0.256731
O3	O	1.307618	0.724055	0.590064
O4	O	0.500154	0.066161	-0.076660
O5	O	0.833487	0.399494	0.256673
O6	O	1.166820	0.732828	0.590007
O7	O	0.574925	-0.008623	-0.076612
O8	O	0.908258	0.324710	0.256722
O9	O	1.241592	0.658044	0.590055
O10	O	0.566179	0.132172	-0.076650
O11	O	0.899513	0.465506	0.256683
O12	O	1.232846	0.798839	0.590016
O13	O	0.574906	-0.008619	0.077070
O14	O	0.908239	0.324715	0.410404
O15	O	1.241573	0.658048	0.743737
O16	O	0.500134	0.066166	0.077022
O17	O	0.833468	0.399499	0.410355
O18	O	1.166801	0.732832	0.743689
O19	O	0.640932	0.057393	0.077080
O20	O	0.974265	0.390726	0.410413
O21	O	1.307598	0.724059	0.743746
Cu22	Cu	0.570531	0.061779	0.091083
Cu23	Cu	0.903865	0.395113	0.424417
Cu24	Cu	1.237198	0.728446	0.757750
Cu25	Cu	0.570554	0.061774	-0.090663
Cu26	Cu	0.903887	0.395108	0.242670
Cu27	Cu	1.237221	0.728441	0.576003
O28	O	0.566160	0.132177	0.077032
O29	O	0.899494	0.465510	0.410365
O30	O	1.232827	0.798843	0.743698
C31	C	0.482137	0.065983	0.000174
C32	C	0.815470	0.399317	0.333507
C33	C	1.148803	0.732650	0.666841
C34	C	0.428480	0.065441	0.000153
C35	C	0.761814	0.398774	0.333486
C36	C	1.095147	0.732108	0.666819
C37	C	0.045331	0.061508	-0.083574
C38	C	0.378664	0.394841	0.249760
C39	C	0.711997	0.728175	0.583093
C40	C	0.246988	0.063575	-0.083599
C41	C	0.580321	0.396908	0.249734
C42	C	0.913655	0.730242	0.583067
O43	O	0.273070	0.063821	-0.154846
O44	O	0.606403	0.397154	0.178487
O45	O	0.939737	0.730487	0.511821
N46	N	0.272198	0.063836	0.000171
N47	N	0.605531	0.397169	0.333504
N48	N	0.938864	0.730503	0.666838
C49	C	0.246991	0.063577	0.083953
C50	C	0.580324	0.396910	0.417287
C51	C	0.913657	0.730244	0.750620
O52	O	0.273061	0.063842	0.155204
O53	O	0.606394	0.397175	0.488538
O54	O	0.939728	0.730508	0.821871
C55	C	0.045335	0.061507	0.083978
C56	C	0.378668	0.394840	0.417311
C57	C	0.712001	0.728173	0.750645
C58	C	0.020127	0.061251	0.000202
C59	C	0.353460	0.394584	0.333536
C60	C	0.686793	0.727917	0.666869
C61	C	0.020123	0.061251	-0.167342
C62	C	0.353456	0.394585	0.165991
C63	C	0.686789	0.727918	0.499324
C64	C	-0.030289	0.060737	-0.167335
C65	C	0.303044	0.394071	0.165998
C66	C	0.636378	0.727404	0.499332
C67	C	-0.055493	0.060480	-0.083559
C68	C	0.277840	0.393813	0.249774
C69	C	0.611174	0.727146	0.583108
C70	C	-0.030285	0.060736	0.000210
C71	C	0.303048	0.394070	0.333543
C72	C	0.636382	0.727403	0.666876
C73	C	0.020129	0.061244	0.167760
C74	C	0.353462	0.394578	0.501093
C75	C	0.686796	0.727911	0.834426
C76	C	-0.030288	0.060725	0.167758
C77	C	0.303045	0.394059	0.501092
C78	C	0.636379	0.727392	0.834425
C79	C	-0.055496	0.060469	0.083983
C80	C	0.277837	0.393803	0.417316
C81	C	0.611171	0.727136	0.750649
C82	C	-0.105900	0.059965	0.083993
C83	C	0.227433	0.393298	0.417326
C84	C	0.560766	0.726632	0.750660
N85	N	-0.131110	0.059704	0.000223
N86	N	0.202223	0.393037	0.333556
N87	N	0.535556	0.726371	0.666890
C88	C	-0.105906	0.059961	-0.083553
C89	C	0.227427	0.393295	0.249780
C90	C	0.560760	0.726628	0.583114
C91	C	0.352863	0.064665	0.083935
C92	C	0.686196	0.397998	0.417268
C93	C	1.019529	0.731332	0.750601
C94	C	0.403276	0.065184	0.083929
C95	C	0.736610	0.398517	0.417262
C96	C	1.069943	0.731850	0.750595
C97	C	0.403270	0.065181	-0.083624
C98	C	0.736604	0.398514	0.249709
C99	C	1.069937	0.731847	0.583042
C100	C	0.352855	0.064666	-0.083617
C101	C	0.686189	0.397999	0.249716
C102	C	1.019522	0.731332	0.583049
C103	C	0.327653	0.064404	0.000164
C104	C	0.660986	0.397737	0.333498
C105	C	0.994320	0.731071	0.666831
C106	C	-0.211775	0.058882	-0.083532
C107	C	0.121559	0.392215	0.249802
C108	C	0.454892	0.725549	0.583135
C109	C	-0.262191	0.058370	-0.083517
C110	C	0.071142	0.391703	0.249816
C111	C	0.404475	0.725037	0.583150
C112	C	-0.262180	0.058371	0.084035
C113	C	0.071153	0.391704	0.417369
C114	C	0.404486	0.725037	0.750702
C115	C	-0.211769	0.058885	0.084021
C116	C	0.121565	0.392219	0.417355
C117	C	0.454898	0.725552	0.750688
C118	C	-0.186567	0.059139	0.000230
C119	C	0.146766	0.392473	0.333564
C120	C	0.480100	0.725806	0.666897
O121	O	-0.132013	0.059713	0.155202
O122	O	0.201321	0.393047	0.488536
O123	O	0.534654	0.726380	0.821869
O124	O	-0.131984	0.059686	-0.154794
O125	O	0.201349	0.393019	0.178540
O126	O	0.534683	0.726353	0.511873
C127	C	0.095742	0.062022	-0.083581
C128	C	0.429076	0.395355	0.249753
C129	C	0.762409	0.728689	0.583086
C130	C	0.120950	0.062279	0.000188
C131	C	0.454283	0.395612	0.333521
C132	C	0.787617	0.728945	0.666855
C133	C	0.095746	0.062021	0.083964
C134	C	0.429080	0.395355	0.417297
C135	C	0.762413	0.728688	0.750631
C136	C	0.171364	0.062797	0.000182
C137	C	0.504697	0.396131	0.333515
C138	C	0.838030	0.729464	0.666849
C139	C	0.196568	0.063055	-0.083594
C140	C	0.529901	0.396388	0.249739
C141	C	0.863234	0.729721	0.583073
C142	C	0.171358	0.062794	-0.167364
C143	C	0.504691	0.396127	0.165969
C144	C	0.838024	0.729460	0.499303
C145	C	0.120946	0.062279	-0.167357
C146	C	0.454279	0.395613	0.165977
C147	C	0.787613	0.728946	0.499310
C148	C	0.120956	0.062282	0.167734
C149	C	0.454289	0.395616	0.501067
C150	C	0.787623	0.728949	0.834401
C151	C	0.171368	0.062797	0.167720
C152	C	0.504701	0.396130	0.501053
C153	C	0.838034	0.729464	0.834387
C154	C	0.196572	0.063054	0.083944
C155	C	0.529905	0.396388	0.417277
C156	C	0.863238	0.729721	0.750611
C157	C	0.574732	-0.026628	0.000232
C158	C	0.908065	0.306706	0.333565
C159	C	1.241399	0.640039	0.666898
C160	C	0.574179	-0.080282	0.000239
C161	C	0.907512	0.253051	0.333572
C162	C	1.240846	0.586384	0.666906
C163	C	0.614884	-0.419105	0.000208
C164	C	0.948217	-0.085772	0.333542
C165	C	1.281551	0.247561	0.666875
C166	C	0.612833	-0.620765	0.000195
C167	C	0.946166	-0.287431	0.333528
C168	C	1.279500	0.045902	0.666861
O169	O	0.650055	-0.652028	0.000170
O170	O	0.983388	-0.318694	0.333503
O171	O	1.316721	0.014639	0.666836
N172	N	0.568497	-0.639880	0.000177
N173	N	0.901830	-0.306546	0.333511
N174	N	1.235163	0.026787	0.666844
C175	C	0.524670	-0.608576	0.000157
C176	C	0.858003	-0.275243	0.333491
C177	C	1.191336	0.058090	0.666824
O178	O	0.486912	-0.629462	0.000133
O179	O	0.820245	-0.296129	0.333466
O180	O	1.153579	0.037204	0.666799
C181	C	0.526721	-0.406918	0.000164
C182	C	0.860055	-0.073585	0.333498
C183	C	1.193388	0.259748	0.666831
C184	C	0.571061	-0.387806	0.000191
C185	C	0.904394	-0.054473	0.333525
C186	C	1.237727	0.278860	0.666858
C187	C	0.659220	-0.399993	0.000234
C188	C	0.992553	-0.066660	0.333567
C189	C	1.325886	0.266674	0.666901
C190	C	0.659732	-0.349581	0.000243
C191	C	0.993065	-0.016248	0.333576
C192	C	1.326399	0.317086	0.666909
C193	C	0.615909	-0.318282	0.000225
C194	C	0.949242	0.015052	0.333559
C195	C	1.282575	0.348385	0.666892
C196	C	0.571573	-0.337394	0.000200
C197	C	0.904906	-0.004061	0.333533
C198	C	1.238240	0.329272	0.666866
C199	C	0.482895	-0.375616	0.000138
C200	C	0.816228	-0.042283	0.333471
C201	C	1.149562	0.291051	0.666805
C202	C	0.483412	-0.325199	0.000137
C203	C	0.816745	0.008135	0.333471
C204	C	1.150079	0.341468	0.666804
C205	C	0.527751	-0.306087	0.000164
C206	C	0.861085	0.027247	0.333497
C207	C	1.194418	0.360580	0.666831
C208	C	0.528262	-0.255683	0.000191
C209	C	0.861595	0.077650	0.333524
C210	C	1.194928	0.410983	0.666858
N211	N	0.572598	-0.236568	0.000208
N212	N	0.905932	0.096765	0.333542
N213	N	1.239265	0.430098	0.666875
C214	C	0.616422	-0.267867	0.000225
C215	C	0.949755	0.065466	0.333559
C216	C	1.283088	0.398799	0.666892
C217	C	0.523596	-0.714450	0.000155
C218	C	0.856929	-0.381117	0.333489
C219	C	1.190262	-0.047784	0.666822
C220	C	0.523083	-0.764865	0.000155
C221	C	0.856416	-0.431531	0.333489
C222	C	1.189749	-0.098198	0.666822
C223	C	0.611246	-0.777049	0.000191
C224	C	0.944579	-0.443716	0.333524
C225	C	1.277913	-0.110383	0.666858
C226	C	0.611759	-0.726634	0.000198
C227	C	0.945092	-0.393301	0.333531
C228	C	1.278425	-0.059967	0.666864
C229	C	0.567932	-0.695335	0.000173
C230	C	0.901266	-0.362002	0.333506
C231	C	1.234599	-0.028669	0.666839
C232	C	0.617494	-0.161998	0.000244
C233	C	0.950827	0.171335	0.333577
C234	C	1.284161	0.504668	0.666911
C235	C	0.618003	-0.111582	0.000256
C236	C	0.951336	0.221752	0.333590
C237	C	1.284669	0.555085	0.666923
C238	C	0.529839	-0.099401	0.000216
C239	C	0.863173	0.233932	0.333549
C240	C	1.196506	0.567265	0.666883
C241	C	0.529331	-0.149814	0.000208
C242	C	0.862664	0.183520	0.333542
C243	C	1.195997	0.516853	0.666875
C244	C	0.573162	-0.181112	0.000219
C245	C	0.906495	0.152222	0.333553
C246	C	1.239829	0.485555	0.666886
O247	O	0.491060	-0.224392	0.000206
O248	O	0.824393	0.108941	0.333539
O249	O	1.157727	0.442275	0.666872
O250	O	0.654174	-0.246972	0.000230
O251	O	0.987507	0.086361	0.333563
O252	O	1.320841	0.419694	0.666896
C253	C	0.614372	-0.469517	0.000200
C254	C	0.947705	-0.136184	0.333533
C255	C	1.281038	0.197149	0.666867
C256	C	0.570036	-0.488630	0.000174
C257	C	0.903369	-0.155297	0.333508
C258	C	1.236703	0.178037	0.666841
C259	C	0.526213	-0.457331	0.000157
C260	C	0.859546	-0.123997	0.333490
C261	C	1.192879	0.209336	0.666824
C262	C	0.569523	-0.539044	0.000174
C263	C	0.902856	-0.205711	0.333507
C264	C	1.236190	0.127622	0.666841
C265	C	0.613346	-0.570343	0.000191
C266	C	0.946680	-0.237010	0.333525
C267	C	1.280013	0.096323	0.666858
C268	C	0.657683	-0.551228	0.000209
C269	C	0.991016	-0.217895	0.333542
C270	C	1.324349	0.115438	0.666875
C271	C	0.658195	-0.500817	0.000217
C272	C	0.991528	-0.167483	0.333550
C273	C	1.324862	0.165850	0.666884
C274	C	0.481876	-0.476446	0.000140
C275	C	0.815210	-0.143112	0.333473
C276	C	1.148543	0.190221	0.666806
C277	C	0.481368	-0.526858	0.000132
C278	C	0.814701	-0.193525	0.333466
C279	C	1.148034	0.139809	0.666799
C280	C	0.525191	-0.558157	0.000150
C281	C	0.858524	-0.224824	0.333483
C282	C	1.191858	0.108509	0.666816
C283	C	0.658949	0.057570	0.000244
C284	C	0.992282	0.390904	0.333577
C285	C	1.325615	0.724237	0.666911
C286	C	0.712605	0.058113	0.000259
C287	C	1.045938	0.391446	0.333592
C288	C	1.379272	0.724779	0.666926
C289	C	0.566353	0.150181	0.000186
C290	C	0.899687	0.483515	0.333519
C291	C	1.233020	0.816848	0.666853
C292	C	0.566906	0.203836	0.000173
C293	C	0.900239	0.537169	0.333506
C294	C	1.233573	0.870503	0.666839
N295	N	0.570519	0.061783	0.218914
N296	N	0.903852	0.395116	0.552248
N297	N	1.237186	0.728450	0.885581
N298	N	0.570570	0.061767	-0.218494
N299	N	0.903904	0.395100	0.114839
N300	N	1.237237	0.728434	0.448172
C301	C	0.570553	0.061772	0.593005
C302	C	0.903887	0.395106	0.926339
C303	C	1.237220	0.728439	1.259672
C304	C	0.530412	0.101656	0.553814
C305	C	0.863746	0.434989	0.887147
C306	C	1.197079	0.768322	1.220480
C307	C	0.530503	0.101799	0.446726
C308	C	0.863837	0.435133	0.780059
C309	C	1.197170	0.768466	1.113392
C310	C	0.570536	0.061778	0.407414
C311	C	0.903869	0.395111	0.740748
C312	C	1.237202	0.728444	1.074081
C313	C	0.620892	0.072407	0.446269
C314	C	0.954225	0.405741	0.779602
C315	C	1.287559	0.739074	1.112935
C316	C	0.620666	0.072690	0.553390
C317	C	0.953999	0.406024	0.886723
C318	C	1.287333	0.739357	1.220057
C319	C	0.560789	0.011139	0.553544
C320	C	0.894122	0.344472	0.886877
C321	C	1.227456	0.677805	1.220210
C322	C	0.559630	0.011486	0.446416
C323	C	0.892963	0.344819	0.779749
C324	C	1.226296	0.678152	1.113082
C325	C	0.570529	0.061780	0.302526
C326	C	0.903862	0.395113	0.635860
C327	C	1.237196	0.728446	0.969193
C328	C	0.570563	0.061771	0.697894
C329	C	0.903897	0.395105	1.031227
C330	C	1.237230	0.728438	1.364560
H331	H	0.332334	0.064457	-0.151835
H332	H	0.665668	0.397790	0.181498
H333	H	0.999001	0.731124	0.514832
H334	H	0.590066	-0.018537	0.578889
H335	H	0.923400	0.314797	0.912222
H336	H	1.256733	0.648130	1.245556
Cl337	Cl	-0.293875	0.058048	0.189348
Cl338	Cl	0.039459	0.391381	0.522681
Cl339	Cl	0.372792	0.724715	0.856015
Cl340	Cl	0.668089	0.028726	0.406960
Cl341	Cl	1.001423	0.362059	0.740293
Cl342	Cl	1.334756	0.695393	1.073627
H343	H	0.524887	0.000821	0.580600
H344	H	0.858220	0.334155	0.913933
H345	H	1.191553	0.667488	1.247266
Cl346	Cl	0.714320	-0.439332	0.000257
Cl347	Cl	1.047653	-0.105999	0.333591
Cl348	Cl	1.380986	0.227334	0.666924
Cl349	Cl	0.051798	0.061575	-0.272676
Cl350	Cl	0.385132	0.394908	0.060658
Cl351	Cl	0.718465	0.728241	0.393991
Cl352	Cl	0.203051	0.063122	0.273049
Cl353	Cl	0.536384	0.396456	0.606383
Cl354	Cl	0.869718	0.729789	0.939716
H355	H	-0.050806	0.060517	0.235985
H356	H	0.282527	0.393850	0.569319
H357	H	0.615861	0.727183	0.902652
H358	H	-0.191245	0.059103	0.152238
H359	H	0.142089	0.392437	0.485572
H360	H	0.475422	0.725770	0.818905
Cl361	Cl	0.666338	-0.816406	0.000208
Cl362	Cl	0.999671	-0.483073	0.333541
Cl363	Cl	1.333005	-0.149740	0.666875
Cl364	Cl	0.667501	-0.702613	0.000230
Cl365	Cl	1.000835	-0.369280	0.333563
Cl366	Cl	1.334168	-0.035946	0.666897
H367	H	-0.050809	0.060526	-0.235554
H368	H	0.282525	0.393860	0.097779
H369	H	0.615858	0.727193	0.431113
H370	H	0.493060	0.095523	0.420456
H371	H	0.826394	0.428856	0.753790
H372	H	1.159727	0.762190	1.087123
H373	H	0.492847	0.095488	0.579588
H374	H	0.826181	0.428822	0.912922
H375	H	1.159514	0.762155	1.246255
Cl376	Cl	0.540050	0.159829	0.407131
Cl377	Cl	0.873384	0.493163	0.740464
Cl378	Cl	1.206717	0.826496	1.073797
Cl379	Cl	0.426778	-0.437105	0.000116
Cl380	Cl	0.760111	-0.103772	0.333450
Cl381	Cl	1.093445	0.229562	0.666783
Cl382	Cl	0.467340	-0.788885	0.000140
Cl383	Cl	0.800673	-0.455551	0.333473
Cl384	Cl	1.134006	-0.122218	0.666806
H385	H	0.423800	0.065392	-0.151838
H386	H	0.757133	0.398725	0.181495
H387	H	1.090466	0.732058	0.514829
Cl388	Cl	0.427151	-0.399630	0.000098
Cl389	Cl	0.760484	-0.066296	0.333432
Cl390	Cl	1.093817	0.267037	0.666765
H391	H	0.536521	0.139027	0.580716
H392	H	0.869854	0.472360	0.914050
H393	H	1.203187	0.805694	1.247383
Cl394	Cl	0.051807	0.061566	0.273085
Cl395	Cl	0.385140	0.394899	0.606418
Cl396	Cl	0.718473	0.728232	0.939751
H397	H	0.445259	-0.542414	0.000119
H398	H	0.778592	-0.209080	0.333452
H399	H	1.111925	0.124253	0.666785
H400	H	0.100426	0.062071	-0.235576
H401	H	0.433760	0.395404	0.097758
H402	H	0.767093	0.728738	0.431091
Cl403	Cl	0.713939	-0.476798	0.000243
Cl404	Cl	1.047272	-0.143465	0.333576
Cl405	Cl	1.380606	0.189869	0.666909
Cl406	Cl	0.634039	0.129684	0.591946
Cl407	Cl	0.967372	0.463017	0.925279
Cl408	Cl	1.300705	0.796351	1.258612
H409	H	0.629771	0.108899	0.419426
H410	H	0.963104	0.442232	0.752759
H411	H	1.296438	0.775566	1.086092
Cl412	Cl	0.502441	-0.000985	0.407209
Cl413	Cl	0.835775	0.332348	0.740542
Cl414	Cl	1.169108	0.665681	1.073876
Cl415	Cl	0.668095	0.029469	0.593422
Cl416	Cl	1.001428	0.362803	0.926755
Cl417	Cl	1.334761	0.696136	1.260088
H418	H	-0.282713	0.058163	-0.151740
H419	H	0.050620	0.391496	0.181593
H420	H	0.383953	0.724830	0.514927
Cl421	Cl	-0.180100	0.059203	-0.188870
Cl422	Cl	0.153233	0.392536	0.144463
Cl423	Cl	0.486566	0.725870	0.477796
H424	H	0.423795	0.065400	0.152147
H425	H	0.757129	0.398733	0.485480
H426	H	1.090462	0.732067	0.818814
Cl427	Cl	0.321186	0.064344	0.189272
Cl428	Cl	0.654519	0.397677	0.522605
Cl429	Cl	0.987853	0.731010	0.855938
Cl430	Cl	0.428312	-0.285854	0.000105
Cl431	Cl	0.761645	0.047479	0.333438
Cl432	Cl	1.094979	0.380812	0.666772
H433	H	0.191887	0.063006	-0.235578
H434	H	0.525220	0.396339	0.097756
H435	H	0.858554	0.729673	0.431089
Cl436	Cl	0.089278	0.061964	0.273064
Cl437	Cl	0.422612	0.395297	0.606397
Cl438	Cl	0.755945	0.728631	0.939730
Cl439	Cl	0.468494	-0.675110	0.000125
Cl440	Cl	0.801827	-0.341776	0.333459
Cl441	Cl	1.135160	-0.008443	0.666792
Cl442	Cl	0.601887	-0.036439	0.405122
Cl443	Cl	0.935220	0.296894	0.738456
Cl444	Cl	1.268553	0.630227	1.071789
H445	H	0.654110	-0.096024	0.000280
H446	H	0.987444	0.237310	0.333614
H447	H	1.320777	0.570643	0.666947
Cl448	Cl	0.715476	-0.325562	0.000250
Cl449	Cl	1.048809	0.007771	0.333583
Cl450	Cl	1.382143	0.341104	0.666916
Cl451	Cl	0.672597	-0.201337	0.000259
Cl452	Cl	1.005930	0.131997	0.333593
Cl453	Cl	1.339264	0.465330	0.666926
H454	H	0.494160	-0.073909	0.000205
H455	H	0.827493	0.259425	0.333538
H456	H	1.160826	0.592758	0.666872
Cl457	Cl	0.473589	-0.173841	0.000192
Cl458	Cl	0.806923	0.159492	0.333526
Cl459	Cl	1.140256	0.492826	0.666859
Cl460	Cl	0.712774	-0.590586	0.000234
Cl461	Cl	1.046108	-0.257252	0.333568
Cl462	Cl	1.379441	0.076081	0.666901
