data_functionalizedCrystal
_audit_creation_method	'MofGen! by Chris Wilmer'
_symmetry_space_group_name_H-M	'P1'
_symmetry_Int_Tables_number	1
_symmetry_cell_setting	triclinic
loop_
_symmetry_equiv_pos_as_xyz
  x,y,z
_cell_length_a	27.732048
_cell_length_b	15.995343
_cell_length_c	15.072220
_cell_angle_alpha	89.991823
_cell_angle_beta	89.993868
_cell_angle_gamma	83.065920
loop_
_atom_site_label
_atom_site_type_symbol
_atom_site_fract_x
_atom_site_fract_y
_atom_site_fract_z
O1	O	0.062283	1.110194	-0.073703
O2	O	0.069981	0.866318	-0.073726
O3	O	-0.004232	0.995830	-0.073697
O4	O	0.136496	0.980682	-0.073732
O5	O	-0.004228	0.995799	0.073868
O6	O	0.069985	0.866286	0.073839
O7	O	0.062288	1.110162	0.073862
Zn8	Zn	0.066137	0.988219	0.097280
Zn9	Zn	0.066132	0.988261	-0.097144
O10	O	0.136501	0.980650	0.073833
C11	C	0.069666	0.835112	0.000054
C12	C	0.068714	0.742173	0.000046
C13	C	0.066985	0.572009	0.000058
C14	C	0.013415	0.549357	0.000072
C15	C	0.012407	0.452692	0.000412
C16	C	0.065283	0.404471	0.000070
C17	C	0.092222	0.433196	0.084162
C18	C	0.092857	0.529980	0.084227
C19	C	0.093637	0.529917	-0.083588
C20	C	0.091659	0.433448	-0.084687
C21	C	0.064324	0.309785	0.000079
C22	C	0.067946	0.666695	0.000055
C23	C	-0.022238	0.995497	0.000088
C24	C	-0.075897	0.994539	0.000095
C25	C	-0.414409	1.065044	0.000056
C26	C	-0.616084	1.061491	0.000043
O27	O	-0.647063	1.125963	0.000011
N28	N	-0.635538	0.984696	0.000037
C29	C	-0.604569	0.908784	0.000028
O30	O	-0.625743	0.843383	0.000013
C31	C	-0.402895	0.912337	0.000035
C32	C	-0.383445	0.989137	0.000050
C33	C	-0.394958	1.141838	0.000070
C34	C	-0.344542	1.142726	0.000078
C35	C	-0.313578	1.066819	0.000072
C36	C	-0.333029	0.990025	0.000058
C37	C	-0.371928	0.836425	0.000019
C38	C	-0.321507	0.837321	0.000019
C39	C	-0.302056	0.914121	0.000034
C40	C	-0.251649	0.915005	0.000060
N41	N	-0.232195	0.991801	0.000066
C42	C	-0.263160	1.067707	0.000072
C43	C	-0.710451	0.906923	0.000027
C44	C	-0.760870	0.906035	0.000027
C45	C	-0.772381	1.058743	0.000040
C46	C	-0.721962	1.059631	0.000047
C47	C	-0.690998	0.983719	0.000033
C48	C	-0.157282	1.069565	0.000090
C49	C	-0.106862	1.070446	0.000101
C50	C	-0.095355	0.917738	0.000083
C51	C	-0.145771	0.916857	0.000076
C52	C	-0.176734	0.992777	0.000076
O53	O	-0.220642	0.850568	0.000082
O54	O	-0.241976	1.133099	0.000067
C55	C	-0.464825	1.064157	0.000048
C56	C	-0.484276	0.987363	0.000034
C57	C	-0.453312	0.911456	0.000028
C58	C	-0.534695	0.986474	0.000034
C59	C	-0.565659	1.062381	0.000040
C60	C	-0.546205	1.139176	0.000046
C61	C	-0.495790	1.140064	0.000054
C62	C	-0.472765	0.834661	0.000021
C63	C	-0.523182	0.833780	0.000014
C64	C	-0.554146	0.909686	0.000021
C65	C	0.154507	0.980984	0.000046
C66	C	0.208166	0.981941	0.000033
C67	C	0.062603	1.141369	0.000080
C68	C	0.063555	1.234307	0.000082
N69	N	0.066140	0.988197	0.229968
N70	N	0.066124	0.988290	-0.229833
C71	C	0.066130	0.988260	0.589170
C72	C	0.105706	0.918731	0.551548
C73	C	0.105851	0.918887	0.448722
C74	C	0.066135	0.988228	0.410966
C75	C	0.077149	1.075450	0.448262
C76	C	0.077430	1.075060	0.551120
C77	C	0.015421	0.971346	0.551281
C78	C	0.015760	0.969337	0.448417
C79	C	0.066137	0.988215	0.310253
C80	C	0.066129	0.988278	0.689883
H81	H	0.072041	0.415158	-0.146900
H82	H	-0.008680	0.433958	-0.059856
H83	H	0.113709	1.090829	0.422485
H84	H	0.132142	0.544045	0.087814
N85	N	-0.781846	0.823201	0.000034
H86	H	-0.754575	0.775253	0.000031
H87	H	-0.802512	0.819510	-0.054669
N88	N	0.001399	0.888960	0.585677
H89	H	0.026637	0.841376	0.566963
H90	H	-0.031248	0.879430	0.560532
H91	H	-0.008578	0.434513	0.061056
H92	H	-0.420165	1.203654	0.000072
H93	H	-0.015071	1.016739	0.422720
N94	N	-0.023593	1.038514	0.583504
H95	H	-0.008523	1.079707	0.622454
H96	H	-0.048550	1.011430	0.618677
H97	H	-0.571426	1.200982	0.000055
N98	N	0.155730	0.932878	0.416096
H99	H	0.177705	0.938997	0.468532
H100	H	0.153251	0.985764	0.378926
H101	H	-0.007010	0.578592	0.060295
N102	N	-0.439375	0.752781	0.000023
H103	H	-0.418206	0.749733	0.054730
H104	H	-0.418225	0.749794	-0.054712
H105	H	-0.007351	0.577646	-0.060222
H106	H	0.131137	0.400846	0.087044
N107	N	0.004701	0.884323	0.416193
H108	H	0.032202	0.858153	0.377488
H109	H	-0.026437	0.891399	0.380771
N110	N	0.142773	0.389169	-0.091767
H111	H	0.146384	0.356119	-0.148967
H112	H	0.149558	0.349560	-0.039858
N113	N	-0.700985	1.142464	0.000064
H114	H	-0.728255	1.190411	0.000070
H115	H	-0.680315	1.146176	-0.054641
N116	N	-0.190676	1.151446	0.000105
H117	H	-0.211848	1.154506	-0.054598
H118	H	-0.170664	1.200178	0.000152
N119	N	0.068442	0.565767	0.167822
H120	H	0.057368	0.518647	0.204281
H121	H	0.039446	0.607375	0.151610
H122	H	0.073742	0.413330	0.146991
H123	H	0.076733	0.558419	-0.147348
H124	H	-0.091028	1.132988	0.000116
N125	N	0.145867	0.547801	-0.084684
H126	H	0.152256	0.582991	-0.031290
H127	H	0.152206	0.579425	-0.140665
H128	H	-0.328711	1.205264	0.000087
N129	N	-0.677057	0.825042	0.000014
H130	H	-0.697037	0.776264	0.000013
H131	H	-0.655891	0.822069	0.054719
N132	N	0.039990	1.145597	0.415866
H133	H	0.022679	1.174783	0.468350
H134	H	0.015628	1.121393	0.376592
N135	N	-0.805783	1.140616	0.000049
H136	H	-0.840673	1.128392	0.000047
H137	H	-0.799484	1.174121	-0.054655
N138	N	-0.061945	0.835879	0.000075
H139	H	-0.068193	0.802355	-0.054634
H140	H	-0.068214	0.802391	0.054807
N141	N	-0.288110	0.755442	-0.000000
H142	H	-0.308086	0.706661	-0.000011
H143	H	-0.266944	0.752466	0.054706
N144	N	-0.166754	0.834025	0.000072
H145	H	-0.139485	0.786074	0.000072
H146	H	-0.187414	0.830343	-0.054640
H147	H	-0.479958	1.202602	0.000066
N148	N	-0.544158	0.750939	0.000012
H149	H	-0.516887	0.702992	0.000010
H150	H	-0.564820	0.747252	-0.054695
H151	H	0.099252	0.853664	0.576305
N152	N	0.097161	0.832981	0.415312
H153	H	0.093202	0.794670	0.467403
H154	H	0.125759	0.808552	0.378182
H155	H	-0.387755	0.773886	0.000002
H156	H	0.143124	0.929311	0.577378
N157	N	0.040708	1.145613	0.584090
H158	H	0.040605	1.145912	0.651100
H159	H	0.007364	1.136920	0.561639
H160	H	0.114412	1.090064	0.575094
