data_functionalizedCrystal
_audit_creation_method	'MofGen! by Chris Wilmer'
_symmetry_space_group_name_H-M	'P1'
_symmetry_Int_Tables_number	1
_symmetry_cell_setting	triclinic
loop_
_symmetry_equiv_pos_as_xyz
  x,y,z
_cell_length_a	12.594516
_cell_length_b	17.640112
_cell_length_c	17.640968
_cell_angle_alpha	92.139080
_cell_angle_beta	101.227826
_cell_angle_gamma	78.759918
loop_
_atom_site_label
_atom_site_type_symbol
_atom_site_fract_x
_atom_site_fract_y
_atom_site_fract_z
Zn1	Zn	-0.030581	-1.247781	0.195081
Zn2	Zn	-0.250168	-1.222032	0.068109
Zn3	Zn	-0.099815	-1.095120	0.093731
Zn4	Zn	-0.236158	-1.120772	0.220690
O5	O	-0.154181	-1.171426	0.144403
O6	O	-0.036598	-1.350633	0.156798
O7	O	-0.265062	-1.183686	-0.034764
O8	O	0.058327	-1.115411	0.107180
O9	O	-0.197928	-1.331715	0.063512
O10	O	0.109193	-1.227571	0.181642
O11	O	-0.154598	-1.090444	-0.015940
O12	O	-0.141013	-0.992255	0.132012
O13	O	-0.174050	-1.159131	0.323565
O14	O	-0.241184	-1.011102	0.225289
O15	O	-0.023013	-1.252445	0.304750
O16	O	-0.397268	-1.208559	0.088344
O17	O	-0.386975	-1.134164	0.200445
C18	C	-0.197091	-0.974125	0.184210
C19	C	-0.215468	-0.889722	0.201258
C20	C	-0.430735	-1.171375	0.144405
C21	C	-0.549023	-1.171428	0.144418
C22	C	-0.089246	-1.211522	0.342483
C23	C	-0.061575	-1.228608	0.426893
C24	C	-0.612729	-1.130952	0.205355
C25	C	-0.710300	-1.098441	0.139790
C26	C	-0.662232	-1.204011	0.209981
C27	C	-0.645055	-1.138872	0.078824
C28	C	-0.596959	-1.244484	0.149055
C29	C	-0.694508	-1.211989	0.083437
C30	C	0.123463	-1.171502	0.144413
C31	C	0.241779	-1.171534	0.144417
C32	C	-0.111103	-1.369498	0.104440
C33	C	-0.092746	-1.453905	0.087411
C34	C	-0.014551	-0.563040	0.014899
C35	C	-0.031838	-0.483733	0.030928
C36	C	-0.136388	-0.503379	0.127890
C37	C	-0.119106	-0.582690	0.111871
C38	C	-0.058188	-0.612514	0.055374
C39	C	-0.162742	-0.632163	0.152347
C40	C	-0.145466	-0.711466	0.136326
C41	C	-0.084554	-0.741296	0.079830
C42	C	-0.040912	-0.691817	0.039354
C43	C	-0.223666	-0.602336	0.208839
C44	C	-0.267303	-0.651810	0.249315
C45	C	-0.250020	-0.731115	0.233299
C46	C	-0.189108	-0.760946	0.176803
C47	C	-0.293662	-0.780595	0.273775
C48	C	-0.276386	-0.859898	0.257755
C49	C	-0.171832	-0.840249	0.160783
C50	C	-0.218777	-1.131531	-0.052915
C51	C	-0.246116	-1.114592	-0.137354
C52	C	-0.363754	-1.041915	0.753480
C53	C	-0.337736	-1.057987	0.832792
C54	C	-0.180474	-1.155145	0.813192
C55	C	-0.206477	-1.139080	0.733876
C56	C	-0.298118	-1.082465	0.704027
C57	C	-0.140841	-1.179629	0.684423
C58	C	-0.166845	-1.163567	0.605114
C59	C	-0.258484	-1.106956	0.575258
C60	C	-0.324122	-1.066403	0.624718
C61	C	-0.049204	-1.236247	0.714274
C62	C	0.016432	-1.276797	0.664821
C63	C	-0.009567	-1.260731	0.585511
C64	C	-0.101207	-1.204120	0.555655
C65	C	0.056071	-1.301285	0.536051
C66	C	0.030067	-1.285223	0.456742
C67	C	-0.127210	-1.188059	0.476346
H68	H	-0.577032	-1.096633	0.256840
H69	H	-0.237731	-0.537762	0.221881
F70	F	0.113958	-1.337051	0.696597
F71	F	-0.224739	-1.127796	0.444575
F72	F	-0.461283	-0.981653	0.721709
F73	F	-0.532762	-1.325164	0.154221
H74	H	0.008713	-0.716104	-0.006640
F75	F	-0.407600	-1.014822	0.885423
H76	H	-0.636769	-1.111287	0.023376
H77	H	-0.316906	-0.627515	0.295312
H78	H	0.130679	-1.347386	0.560366
H79	H	-0.343271	-0.756298	0.319769
F80	F	-0.322832	-0.912554	0.300832
F81	F	-0.066173	-0.825698	0.062776
H82	H	0.083516	-1.318241	0.416476
F83	F	-0.201232	-0.471627	0.188008
H84	H	-0.759408	-1.036709	0.135873
F85	F	-0.082948	-1.215399	0.844968
H86	H	-0.730048	-1.246254	0.031854
F87	F	-0.286164	-1.089865	0.490849
F88	F	-0.673261	-1.239973	0.282451
H89	H	0.003710	-0.443454	-0.002031
F90	F	-0.106987	-0.871995	0.100657
F91	F	0.050293	-0.594787	-0.045227
F92	F	-0.421651	-1.006140	0.592947
H93	H	-0.028037	-1.249325	0.778852
