data_functionalizedCrystal
_audit_creation_method	'MofGen! by Chris Wilmer'
_symmetry_space_group_name_H-M	'P1'
_symmetry_Int_Tables_number	1
_symmetry_cell_setting	triclinic
loop_
_symmetry_equiv_pos_as_xyz
  x,y,z
_cell_length_a	13.635800
_cell_length_b	18.024570
_cell_length_c	17.110477
_cell_angle_alpha	83.575787
_cell_angle_beta	80.939702
_cell_angle_gamma	103.037043
loop_
_atom_site_label
_atom_site_type_symbol
_atom_site_fract_x
_atom_site_fract_y
_atom_site_fract_z
V1	V	1.999735	0.237451	-0.110233
O2	O	2.005091	0.233032	0.004524
O3	O	1.964682	0.235730	-0.217831
O4	O	1.974559	0.341056	-0.108877
O5	O	1.995145	0.126977	-0.105184
V6	V	2.243082	0.224249	-0.096467
O7	O	2.126887	0.266410	-0.140431
O8	O	2.341029	0.195290	-0.066269
O9	O	2.166532	0.225970	0.011131
O10	O	2.296425	0.228668	-0.211225
O11	O	2.306371	0.334723	-0.101516
O12	O	2.156655	0.120644	-0.097823
V13	V	2.499735	0.237451	-0.110233
O14	O	2.505091	0.233032	0.004524
O15	O	2.464682	0.235730	-0.217831
O16	O	2.474559	0.341056	-0.108877
O17	O	2.495145	0.126977	-0.105184
V18	V	2.743082	0.224249	-0.096467
O19	O	2.626887	0.266410	-0.140431
O20	O	2.841029	0.195290	-0.066269
O21	O	2.666532	0.225970	0.011131
O22	O	2.796425	0.228668	-0.211225
O23	O	2.806371	0.334723	-0.101516
O24	O	2.656655	0.120644	-0.097823
C25	C	1.884574	0.231959	-0.244050
C26	C	1.896550	0.231242	-0.332015
C27	C	1.992783	0.234702	-0.377383
C28	C	2.004031	0.234033	-0.460036
C29	C	1.919045	0.229899	-0.497318
C30	C	1.822805	0.226441	-0.451944
C31	C	1.811559	0.227115	-0.369294
C32	C	1.948468	0.227677	-0.746666
C33	C	1.959721	0.227001	-0.829322
C34	C	2.140948	0.234595	-0.837409
C35	C	2.129692	0.235264	-0.754756
C36	C	2.033455	0.231810	-0.709390
C37	C	1.930540	0.229212	-0.581801
C38	C	2.021963	0.232502	-0.624909
C39	C	1.897173	0.366311	-0.105068
C40	C	1.917158	0.451008	-0.104670
C41	C	1.939231	0.501614	-0.176983
C42	C	1.958014	0.581196	-0.176608
C43	C	1.954716	0.610170	-0.103920
C44	C	1.932644	0.559558	-0.031602
C45	C	1.913869	0.479978	-0.031978
C46	C	2.008363	0.880494	-0.030086
C47	C	2.027137	0.960080	-0.029716
C48	C	2.052508	0.981712	-0.174716
C49	C	2.033733	0.902132	-0.175092
C50	C	2.011668	0.851527	-0.102775
C51	C	1.991303	0.765236	-0.103182
C52	C	1.975073	0.696459	-0.103512
C53	C	2.078311	0.229739	0.037346
C54	C	2.055954	0.230461	0.125310
C55	C	2.069198	1.095384	-0.101636
C56	C	2.049218	1.010687	-0.102030
C57	C	2.384574	0.231959	-0.244050
C58	C	2.396550	0.231242	-0.332015
C59	C	2.397173	0.366311	-0.105068
C60	C	2.417158	0.451008	-0.104670
C61	C	2.578311	0.229739	0.037346
C62	C	2.555954	0.230461	0.125310
C63	C	2.565713	0.095384	-0.101635
C64	C	2.535347	0.010687	-0.102028
C65	C	2.492793	0.234708	-0.377371
C66	C	2.504063	0.234047	-0.460025
C67	C	2.419088	0.229913	-0.497322
C68	C	2.322839	0.226449	-0.451960
C69	C	2.311571	0.227116	-0.369308
C70	C	2.517168	0.494663	-0.108441
C71	C	2.535959	0.574243	-0.108058
C72	C	2.454740	0.610169	-0.103909
C73	C	2.354722	0.566508	-0.100135
C74	C	2.335931	0.486928	-0.100513
C75	C	2.632205	0.226996	0.170665
C76	C	2.611207	0.227662	0.253319
C77	C	2.513958	0.231797	0.290615
C78	C	2.437701	0.235259	0.245254
C79	C	2.458698	0.234588	0.162602
C80	C	2.434336	-0.025219	-0.106168
C81	C	2.405787	-0.104802	-0.106528
C82	C	2.478253	-0.148478	-0.102754
C83	C	2.579271	-0.112567	-0.098611
C84	C	2.607817	-0.032986	-0.098246
H85	H	2.061989	0.238061	-0.347033
N86	N	2.737099	0.222538	0.130449
H87	H	2.782206	0.220441	0.171734
H88	H	2.730587	0.174649	0.104168
H89	H	2.375317	0.010331	-0.109242
H90	H	2.091159	0.235872	-0.594551
N91	N	2.332822	0.239734	0.285486
H92	H	2.287693	0.241829	0.244217
H93	H	2.301325	0.192738	0.327442
N94	N	2.376447	0.238337	0.113692
H95	H	2.400293	0.285672	0.071390
H96	H	2.362308	0.190755	0.087104
N97	N	1.942800	0.470370	-0.255385
H98	H	1.927556	0.412277	-0.244653
H99	H	1.889998	0.486368	-0.284288
N100	N	2.657417	-0.159686	-0.094550
H101	H	2.715542	-0.140184	-0.142063
H102	H	2.684995	-0.154883	-0.043425
N103	N	1.890029	0.425393	0.046019
H104	H	1.878631	0.370583	0.034752
H105	H	1.949387	0.437208	0.075062
N106	N	2.267131	0.605266	-0.095671
H107	H	2.200917	0.565541	-0.093340
H108	H	2.262353	0.630761	-0.046039
N109	N	2.607858	0.237764	-0.508961
H110	H	2.657922	0.286974	-0.504182
H111	H	2.633017	0.192054	-0.488485
H112	H	2.024456	0.983666	0.029479
N113	N	2.296832	-0.143525	-0.110996
H114	H	2.255267	-0.103775	-0.113340
H115	H	2.296449	-0.169024	-0.160625
N116	N	2.207762	0.223376	-0.320392
H117	H	2.155648	0.220656	-0.356566
H118	H	2.186749	0.176043	-0.278093
N119	N	2.474997	0.696002	-0.103506
H120	H	2.435314	0.706293	-0.052557
H121	H	2.550694	0.718157	-0.106558
N122	N	1.838875	0.224730	-0.622014
H123	H	1.851880	0.271716	-0.663967
H124	H	1.827187	0.176806	-0.648237
H125	H	2.198901	0.238636	-0.724408
H126	H	2.496874	0.232342	0.357916
H127	H	2.428277	0.229370	-0.564623
N128	N	2.231187	0.221969	-0.492188
H129	H	2.252938	0.222062	-0.551427
H130	H	2.177282	0.172975	-0.468141
N131	N	2.584452	0.239168	-0.337155
H132	H	2.647126	0.241267	-0.378440
H133	H	2.596111	0.287055	-0.310872
H134	H	2.254492	0.451391	-0.097444
H135	H	1.733198	0.224301	-0.332356
H136	H	2.690072	-0.003757	-0.094879
H137	H	2.583313	0.465423	-0.111822
H138	H	1.753609	0.223079	-0.482306
N139	N	2.693467	0.223940	0.302232
H140	H	2.758260	0.221231	0.266056
H141	H	2.707527	0.271499	0.328862
N142	N	2.447456	-0.234312	-0.103146
H143	H	2.372468	-0.250424	-0.106343
H144	H	2.489938	-0.247597	-0.150984
H145	H	2.617405	0.609782	-0.111134
N146	N	1.984567	0.825921	0.047911
H147	H	1.973182	0.771111	0.036649
H148	H	2.043943	0.837755	0.076933
H149	H	2.219301	0.237406	-0.874355
N150	N	2.107826	0.237767	-0.508970
H151	H	2.159956	0.240484	-0.472810
H152	H	2.104050	0.190211	-0.535606
H153	H	1.890514	0.223652	-0.859677
H154	H	1.975991	0.622397	-0.235493
N155	N	2.037304	0.870883	-0.253492
H156	H	1.984501	0.886823	-0.282438
H157	H	2.107782	0.892112	-0.287745
N158	N	2.076313	1.036293	-0.252719
H159	H	2.087712	1.091104	-0.241457
H160	H	2.140196	1.029741	-0.287141
H161	H	1.870106	0.224860	-0.709738
H162	H	1.929966	0.583154	0.027581
