data_functionalizedCrystal
_audit_creation_method	'MofGen! by Chris Wilmer'
_symmetry_space_group_name_H-M	'P1'
_symmetry_Int_Tables_number	1
_symmetry_cell_setting	triclinic
loop_
_symmetry_equiv_pos_as_xyz
  x,y,z
_cell_length_a	15.995280
_cell_length_b	12.503572
_cell_length_c	14.044220
_cell_angle_alpha	86.156832
_cell_angle_beta	91.673763
_cell_angle_gamma	86.481942
loop_
_atom_site_label
_atom_site_type_symbol
_atom_site_fract_x
_atom_site_fract_y
_atom_site_fract_z
O1	O	-1.124544	0.089342	0.116373
O2	O	-0.881893	0.089340	0.131530
O3	O	-0.999576	0.089330	-0.014031
O4	O	-1.006861	0.089351	0.261935
O5	O	-0.990727	-0.089311	-0.003066
O6	O	-0.873044	-0.089301	0.142495
O7	O	-1.115695	-0.089300	0.127338
Cu8	Cu	-0.993561	-0.105612	0.135918
Cu9	Cu	-1.004026	0.105652	0.122951
O10	O	-0.998012	-0.089290	0.272900
C11	C	-0.846226	0.000019	0.136398
C12	C	-0.753135	0.000018	0.134555
C13	C	-0.414889	0.000033	0.127777
C14	C	-0.446069	0.000440	0.232809
C15	C	-0.542874	0.000032	0.234826
C16	C	-0.582697	0.000027	0.131140
C17	C	-0.544619	-0.101986	0.084879
C18	C	-0.447730	-0.102066	0.083624
C19	C	-0.457777	0.101082	0.069009
C20	C	-0.554627	0.102425	0.072815
C21	C	-0.677535	0.000019	0.133036
C22	C	-0.320051	0.000034	0.125879
N23	N	-0.986207	-0.254203	0.145038
C24	C	-0.991962	0.000009	-0.043862
C25	C	-0.982451	0.000008	-0.149085
C26	C	-0.151361	0.000026	0.122483
C27	C	-0.244451	0.000042	0.124363
C28	C	-0.975388	-0.473318	0.158462
C29	C	-1.022203	-0.526649	0.100402
C30	C	-1.016183	-0.648571	0.107871
C31	C	-0.981407	-0.351384	0.150994
N32	N	-1.011387	0.254244	0.113823
C33	C	-0.965064	0.000023	-0.341742
C34	C	-1.032521	0.000027	-0.399395
C35	C	-1.022846	0.000035	-0.506596
C36	C	-0.974737	0.000015	-0.234531
C37	C	-1.005625	0.000034	0.302731
C38	C	-1.015137	0.000042	0.407953
H39	H	-0.424721	0.073599	0.268814
N40	N	-0.878941	0.000008	-0.382993
H41	H	-0.850760	0.066225	-0.364955
H42	H	-0.884218	-0.000031	-0.454827
H43	H	-0.419852	-0.178319	0.124682
N44	N	-0.916313	-0.534117	0.231733
H45	H	-0.920336	-0.613857	0.226749
H46	H	-0.932063	-0.514524	0.297765
N47	N	-0.576953	0.096897	0.283357
H48	H	-0.529080	0.140246	0.303632
H49	H	-0.608418	0.072457	0.341373
H50	H	-1.097542	0.000099	-0.368247
N51	N	-0.428687	0.203506	0.106321
H52	H	-0.456976	0.267320	0.067613
H53	H	-0.365933	0.204845	0.100884
H54	H	-0.560740	-0.073214	0.280704
N55	N	-0.406852	-0.095914	0.292074
H56	H	-0.368976	-0.139826	0.251182
H57	H	-0.452396	-0.141385	0.317474
H58	H	-0.570600	-0.105784	0.008813
N59	N	-0.420521	-0.108208	-0.018026
H60	H	-0.471462	-0.110857	-0.061821
H61	H	-0.382566	-0.175071	-0.022901
N62	N	-1.081283	-0.465849	0.027127
H63	H	-1.077267	-0.386107	0.032109
H64	H	-1.140565	-0.485430	0.039169
N65	N	-0.431642	0.101992	-0.033478
H66	H	-0.368759	0.104782	-0.035821
H67	H	-0.459445	0.167084	-0.070826
H68	H	-0.563642	-0.177901	0.126013
H69	H	-0.579792	0.177893	0.106425
H70	H	-0.582250	0.108582	-0.003243
