data_functionalizedCrystal
_audit_creation_method	'MofGen! by Chris Wilmer'
_symmetry_space_group_name_H-M	'P1'
_symmetry_Int_Tables_number	1
_symmetry_cell_setting	triclinic
loop_
_symmetry_equiv_pos_as_xyz
  x,y,z
_cell_length_a	12.759399
_cell_length_b	15.298110
_cell_length_c	12.759393
_cell_angle_alpha	80.332760
_cell_angle_beta	89.969792
_cell_angle_gamma	99.649286
loop_
_atom_site_label
_atom_site_type_symbol
_atom_site_fract_x
_atom_site_fract_y
_atom_site_fract_z
Zn1	Zn	-0.695937	-1.379095	-0.315662
Zn2	Zn	-0.871637	-1.379002	-0.140005
Zn3	Zn	-0.665612	-1.228244	-0.170447
Zn4	Zn	-0.841192	-1.228232	-0.346075
O5	O	-0.768594	-1.303643	-0.243047
O6	O	-0.744676	-1.505312	-0.266894
O7	O	-0.844357	-1.358970	0.002971
O8	O	-0.522622	-1.248298	-0.189722
O9	O	-0.873762	-1.505244	-0.137839
O10	O	-0.544902	-1.359128	-0.296411
O11	O	-0.692991	-1.248209	-0.019394
O12	O	-0.663471	-1.102013	-0.219212
O13	O	-0.821874	-1.248279	-0.489055
O14	O	-0.792469	-1.102005	-0.348245
O15	O	-0.715155	-1.359117	-0.466711
O16	O	-1.014611	-1.358959	-0.167329
O17	O	-0.992243	-1.248189	-0.318728
C18	C	-0.721376	-1.069279	-0.290333
C19	C	-0.701201	-0.969017	-0.310586
C20	C	-0.912738	-0.686250	-0.098490
C21	C	-0.931692	-0.780451	-0.079453
C22	C	-0.874071	-0.827597	-0.137235
C23	C	-0.797493	-0.780533	-0.214057
C24	C	-0.778531	-0.686322	-0.233090
C25	C	-0.739864	-0.827669	-0.271835
C26	C	-0.663286	-0.780605	-0.348657
C27	C	-0.644328	-0.686404	-0.367687
C28	C	-0.701948	-0.639258	-0.309905
C29	C	-0.758826	-0.921880	-0.252801
C30	C	-0.624619	-0.921952	-0.387401
C31	C	-0.605665	-0.827751	-0.406438
C32	C	-1.041550	-1.303587	-0.243043
C33	C	-1.158339	-1.303645	-0.243060
C34	C	-1.311441	-1.246078	-0.187460
C35	C	-1.201705	-1.246018	-0.187454
C36	C	-1.224714	-1.361330	-0.298686
C37	C	-1.334447	-1.361384	-0.298698
C38	C	-1.354802	-1.188453	-0.131842
C39	C	-1.288434	-1.130767	-0.076218
C40	C	-1.178698	-1.130707	-0.076211
C41	C	-1.135330	-1.188333	-0.131829
C42	C	-0.494578	-1.303725	-0.243070
C43	C	-0.377808	-1.303760	-0.243079
C44	C	-0.768501	-1.303707	-0.517068
C45	C	-0.768461	-1.303734	-0.633839
C46	C	-0.815987	-0.538923	-0.195567
C47	C	-0.836155	-0.639185	-0.175305
C48	C	-0.712888	-1.361455	-0.677067
C49	C	-0.712854	-1.361476	-0.786787
C50	C	-0.823976	-1.246053	-0.810042
C51	C	-0.824003	-1.246027	-0.700325
C52	C	-0.657347	-1.419161	-0.610581
C53	C	-0.601770	-1.476888	-0.653808
C54	C	-0.601736	-1.476909	-0.763527
C55	C	-0.657280	-1.419204	-0.830021
C56	C	-0.768622	-1.303632	0.029918
C57	C	-0.768401	-1.303780	0.146724
H58	H	-0.889508	-0.904300	-0.121730
H59	H	-0.556541	-1.523864	-0.599663
Cl60	Cl	-0.893866	-1.173461	-0.645977
Cl61	Cl	-0.531874	-1.549481	-0.817867
Cl62	Cl	-1.170192	-1.433770	-0.368597
Cl63	Cl	-1.095265	-1.058180	-0.006299
Cl64	Cl	-0.657218	-1.419221	-0.967958
H65	H	-0.994041	-0.818764	-0.016903
H66	H	-1.323751	-1.083844	-0.030944
H67	H	-1.388483	-1.408343	-0.344001
H68	H	-1.045974	-1.188278	-0.131822
Cl69	Cl	-0.657389	-1.419141	-0.472647
H70	H	-0.869196	-1.199071	-0.864189
H71	H	-0.959637	-0.647855	-0.051446
Cl72	Cl	-0.855095	-0.981035	-0.156231
H73	H	-0.577696	-0.960339	-0.434449
Cl74	Cl	-0.678138	-0.520828	-0.333849
H75	H	-0.581965	-0.648087	-0.430233
H76	H	-0.543313	-0.789418	-0.468987
H77	H	-1.444153	-1.188497	-0.131839
