data_functionalizedCrystal
_audit_creation_method	'MofGen! by Chris Wilmer'
_symmetry_space_group_name_H-M	'P1'
_symmetry_Int_Tables_number	1
_symmetry_cell_setting	triclinic
loop_
_symmetry_equiv_pos_as_xyz
  x,y,z
_cell_length_a	12.759395
_cell_length_b	17.640280
_cell_length_c	12.759387
_cell_angle_alpha	101.231497
_cell_angle_beta	90.020509
_cell_angle_gamma	78.802277
loop_
_atom_site_label
_atom_site_type_symbol
_atom_site_fract_x
_atom_site_fract_y
_atom_site_fract_z
Zn1	Zn	1.690820	-0.314594	0.509546
Zn2	Zn	2.190820	0.185406	1.009546
Zn3	Zn	1.726239	-0.446788	0.298376
Zn4	Zn	2.226239	0.053212	0.798376
Zn5	Zn	1.515129	-0.314637	0.333871
Zn6	Zn	2.015129	0.185363	0.833871
Zn7	Zn	1.550624	-0.446732	0.474030
Zn8	Zn	2.050624	0.053268	0.974030
O9	O	1.620703	-0.380688	0.403956
O10	O	2.120703	0.119312	0.903956
O11	O	1.842541	-0.332135	0.481542
O12	O	2.342541	0.167865	0.981542
O13	O	1.698204	-0.429300	0.156052
O14	O	2.198204	0.070700	0.656052
O15	O	1.508757	-0.204025	0.386893
O16	O	2.008757	0.295975	0.886893
O17	O	1.868563	-0.429258	0.326397
O18	O	2.368563	0.070742	0.826397
O19	O	1.637836	-0.203994	0.515961
O20	O	2.137836	0.296006	1.015961
O21	O	1.543102	-0.332209	0.182130
O22	O	2.043102	0.167791	0.682130
O23	O	1.372815	-0.332154	0.352455
O24	O	1.872815	0.167846	0.852455
O25	O	1.569253	-0.429162	0.625774
O26	O	2.069253	0.070838	1.125774
O27	O	1.398893	-0.429204	0.455429
O28	O	1.898893	0.070796	0.955429
O29	O	1.672254	-0.332081	0.651867
O30	O	2.172254	0.167919	1.151867
O31	O	1.732621	-0.557387	0.291959
O32	O	2.232621	-0.057387	0.791959
O33	O	1.603597	-0.557346	0.421011
O34	O	2.103597	-0.057346	0.921011
C35	C	1.347733	-0.380678	0.403940
C36	C	1.847733	0.119322	0.903940
C37	C	1.230960	-0.380693	0.403954
C38	C	1.730960	0.119307	0.903954
C39	C	1.258197	-0.481915	0.510919
C40	C	1.758197	0.018085	1.010919
C41	C	1.216957	-0.532532	0.564404
C42	C	1.716957	-0.032532	1.064404
C43	C	1.107238	-0.532541	0.564414
C44	C	1.607238	-0.032541	1.064414
C45	C	1.038755	-0.481927	0.510937
C46	C	1.538755	0.018073	1.010937
C47	C	1.079995	-0.431310	0.457453
C48	C	1.579995	0.068690	0.957453
C49	C	1.189719	-0.431307	0.457446
C50	C	1.689719	0.068693	0.957446
C51	C	1.052757	-0.330086	0.350495
C52	C	1.552757	0.169914	0.850495
C53	C	1.162477	-0.330079	0.350477
C54	C	1.662477	0.169921	0.850477
C55	C	0.984275	-0.279471	0.297017
C56	C	1.484275	0.220529	0.797017
C57	C	1.025516	-0.228857	0.243526
C58	C	1.525516	0.271143	0.743526
C59	C	1.135242	-0.228850	0.243516
C60	C	1.635242	0.271150	0.743516
C61	C	1.203718	-0.279462	0.296992
C62	C	1.703718	0.220538	0.796992
C63	C	1.675833	-0.586045	0.348802
C64	C	2.175833	-0.086045	0.848802
C65	C	1.699514	-0.673898	0.325242
C66	C	2.199514	-0.173898	0.825242
C67	C	1.441233	-0.962865	0.583319
C68	C	1.941233	-0.462865	1.083319
C69	C	1.463487	-1.045416	0.561148
C70	C	1.963487	-0.545416	1.061148
C71	C	1.597922	-1.045394	0.426902
C72	C	2.097922	-0.545394	0.926902
C73	C	1.575683	-0.962841	0.449066
C74	C	2.075683	-0.462841	0.949066
C75	C	1.497337	-0.921583	0.527275
C76	C	1.997337	-0.421583	1.027275
C77	C	1.631787	-0.921559	0.393021
C78	C	2.131787	-0.421559	0.893021
C79	C	1.609546	-0.839013	0.415179
C80	C	2.109546	-0.339013	0.915179
C81	C	1.531201	-0.797750	0.493383
C82	C	2.031201	-0.297750	0.993383
C83	C	1.475095	-0.839038	0.549433
C84	C	1.975095	-0.339038	1.049433
C85	C	1.710128	-0.962818	0.314807
C86	C	2.210128	-0.462818	0.814807
C87	C	1.766232	-0.921536	0.258762
C88	C	2.266232	-0.421536	0.758762
C89	C	1.743997	-0.838989	0.280925
C90	C	2.243997	-0.338989	0.780925
C91	C	1.665651	-0.797726	0.359129
C92	C	2.165651	-0.297726	0.859129
C93	C	1.800102	-0.797702	0.224875
C94	C	2.300102	-0.297702	0.724875
C95	C	1.777861	-0.715156	0.247033
C96	C	2.277861	-0.215156	0.747033
C97	C	1.643410	-0.715180	0.381287
C98	C	2.143410	-0.215180	0.881287
C99	C	1.894739	-0.380698	0.403972
C100	C	2.394739	0.119302	0.903972
C101	C	2.011517	-0.380703	0.403979
C102	C	2.511517	0.119297	0.903979
C103	C	1.620761	-0.380610	0.678010
C104	C	2.120761	0.119390	1.178010
C105	C	1.620786	-0.380577	0.794796
C106	C	2.120786	0.119423	1.294796
C107	C	1.565386	-0.174529	0.459348
C108	C	2.065386	0.325471	0.959348
C109	C	1.541814	-0.086676	0.482953
C110	C	2.041814	0.413324	0.982953
C111	C	1.620690	-0.380708	0.130983
C112	C	2.120690	0.119292	0.630983
C113	C	1.620809	-0.380518	0.014258
C114	C	2.120809	0.119482	0.514258
C115	C	1.728052	-0.279493	0.821985
C116	C	2.228052	0.220507	1.321985
C117	C	1.781697	-0.228939	0.890443
C118	C	2.281697	0.271061	1.390443
C119	C	1.781715	-0.228910	1.000173
C120	C	2.281715	0.271090	1.500173
C121	C	1.728080	-0.279439	1.041445
C122	C	2.228080	0.220561	1.541445
C123	C	1.674435	-0.329993	0.972987
C124	C	2.174435	0.170007	1.472987
C125	C	1.674426	-0.330018	0.863256
C126	C	2.174426	0.169982	1.363256
C127	C	1.567164	-0.431072	0.945799
C128	C	2.067164	0.068928	1.445799
C129	C	1.567151	-0.431106	0.836068
C130	C	2.067151	0.068894	1.336068
C131	C	1.513529	-0.481601	0.987072
C132	C	2.013529	0.018399	1.487072
C133	C	1.459890	-0.532160	0.918612
C134	C	1.959890	-0.032160	1.418612
C135	C	1.459875	-0.532188	0.808876
C136	C	1.959875	-0.032188	1.308876
C137	C	1.513507	-0.481660	0.767610
C138	C	2.013507	0.018340	1.267610
H139	H	0.949415	-0.481932	0.510961
H140	H	1.449415	0.018068	1.010961
Br141	Br	1.740354	-1.074846	0.284773
Br142	Br	2.240354	-0.574846	0.784773
H143	H	0.894936	-0.279479	0.297035
H144	H	1.394936	0.220521	0.797035
Br145	Br	1.513500	-0.481699	0.618691
Br146	Br	2.013500	0.018301	1.118691
H147	H	0.969749	-0.187647	0.199995
H148	H	1.469749	0.312353	0.699995
H149	H	1.728088	-0.279405	1.130796
H150	H	2.228088	0.220595	1.630796
H151	H	1.377442	-0.929271	0.647013
H152	H	1.877442	-0.429271	1.147013
Br153	Br	1.387057	-0.600794	0.715978
Br154	Br	1.887057	-0.100794	1.215978
H155	H	1.293059	-0.279463	0.296986
H156	H	1.793059	0.220537	0.796986
Br157	Br	1.513549	-0.481562	1.135992
Br158	Br	2.013549	0.018438	1.635992
Br159	Br	1.051262	-0.601229	0.637011
Br160	Br	1.551262	-0.101229	1.137011
Br161	Br	1.407108	-0.481919	0.510887
Br162	Br	1.907108	0.018081	1.010887
Br163	Br	1.309901	-0.601223	0.636970
Br164	Br	1.809901	-0.101223	1.136970
H165	H	1.579620	-0.681586	0.444981
H166	H	2.079620	-0.181586	0.944981
Br167	Br	1.387097	-0.600721	0.974632
Br168	Br	1.887097	-0.100721	1.474632
H169	H	1.825389	-0.187740	1.055914
H170	H	2.325389	0.312260	1.555914
H171	H	1.168811	-0.187626	0.199972
H172	H	1.668811	0.312374	0.699972
Br173	Br	1.387320	-1.101440	0.637202
Br174	Br	1.887320	-0.601440	1.137202
H175	H	1.411305	-0.805444	0.613127
H176	H	1.911305	-0.305444	1.113127
Br177	Br	1.501278	-0.685722	0.523725
Br178	Br	2.001278	-0.185722	1.023725
H179	H	1.661709	-1.078997	0.363221
H180	H	2.161709	-0.578997	0.863221
H181	H	1.830019	-0.955140	0.195081
H182	H	2.330019	-0.455140	0.695081
Br183	Br	1.906416	-0.853704	0.118728
Br184	Br	2.406416	-0.353704	0.618728
H185	H	1.823546	-0.681544	0.201394
H186	H	2.323546	-0.181544	0.701394
H187	H	1.728055	-0.279519	0.732637
H188	H	2.228055	0.220481	1.232637
Br189	Br	1.854447	-0.160344	0.834433
Br190	Br	2.354447	0.339656	1.334433
