data_functionalizedCrystal
_audit_creation_method	'MofGen! by Chris Wilmer'
_symmetry_space_group_name_H-M	'P1'
_symmetry_Int_Tables_number	1
_symmetry_cell_setting	triclinic
loop_
_symmetry_equiv_pos_as_xyz
  x,y,z
_cell_length_a	17.077404
_cell_length_b	17.077402
_cell_length_c	17.077396
_cell_angle_alpha	89.968612
_cell_angle_beta	89.982940
_cell_angle_gamma	90.023108
loop_
_atom_site_label
_atom_site_type_symbol
_atom_site_fract_x
_atom_site_fract_y
_atom_site_fract_z
Zn1	Zn	1.200036	-0.312491	-0.443836
Zn2	Zn	1.199948	-0.443770	-0.312567
Zn3	Zn	1.068773	-0.312522	-0.312584
Zn4	Zn	1.068736	-0.443719	-0.443790
O5	O	1.134373	-0.378126	-0.378194
O6	O	1.309871	-0.329913	-0.426434
O7	O	1.182527	-0.426393	-0.202722
O8	O	1.086238	-0.202671	-0.330021
O9	O	1.309807	-0.426363	-0.329992
O10	O	1.182676	-0.202648	-0.426451
O11	O	1.086153	-0.329967	-0.202734
O12	O	0.958921	-0.329918	-0.329976
O13	O	1.086174	-0.426277	-0.553643
O14	O	0.958894	-0.426308	-0.426373
O15	O	1.182639	-0.329865	-0.553677
O16	O	1.182490	-0.553610	-0.329948
O17	O	1.086089	-0.553573	-0.426357
C18	C	0.930425	-0.378111	-0.378172
C19	C	0.843176	-0.378124	-0.378182
C20	C	0.802192	-0.428390	-0.428295
C21	C	0.720211	-0.428392	-0.428308
C22	C	0.679216	-0.378131	-0.378202
C23	C	0.720206	-0.327859	-0.328087
C24	C	0.802185	-0.327854	-0.328079
C25	C	0.549336	-0.327875	-0.328106
C26	C	0.467351	-0.327881	-0.328112
C27	C	0.467362	-0.428412	-0.428335
C28	C	0.549341	-0.428407	-0.428327
C29	C	0.590325	-0.378137	-0.378210
C30	C	1.134297	-0.582073	-0.378163
C31	C	1.134337	-0.669323	-0.378176
C32	C	1.184584	-0.710306	-0.328029
C33	C	1.184623	-0.792287	-0.328049
C34	C	1.134409	-0.833283	-0.378212
C35	C	1.084159	-0.792294	-0.428364
C36	C	1.084125	-0.710315	-0.428348
C37	C	1.084232	-0.963164	-0.428394
C38	C	1.084265	-1.045148	-0.428410
C39	C	1.184729	-1.045136	-0.328096
C40	C	1.184696	-0.963157	-0.328079
C41	C	1.134444	-0.922174	-0.378230
C42	C	1.339117	-0.378140	-0.378216
C43	C	1.426367	-0.378147	-0.378226
C44	C	1.134412	-0.378062	-0.582938
C45	C	1.134429	-0.378035	-0.670188
C46	C	1.134471	-0.173381	-0.378243
C47	C	1.134512	-0.086131	-0.378263
C48	C	1.184682	-0.428153	-1.045999
C49	C	1.184662	-0.428176	-0.964018
C50	C	1.134479	-0.377979	-0.923037
C51	C	1.084307	-0.327763	-0.964041
C52	C	1.084324	-0.327744	-1.046020
C53	C	1.084278	-0.327803	-0.793171
C54	C	1.084262	-0.327820	-0.711186
C55	C	1.184616	-0.428235	-0.711169
C56	C	1.184633	-0.428216	-0.793148
C57	C	1.134461	-0.377998	-0.834146
C58	C	1.134380	-0.378132	-0.174246
C59	C	1.134515	-0.377938	-0.086997
H60	H	0.582703	-0.286932	-0.287302
O61	O	0.427587	-0.477357	-0.476935
C62	C	0.447599	-0.555567	-0.459642
H63	H	0.470109	-0.559445	-0.396922
H64	H	0.393674	-0.594359	-0.466334
H65	H	0.495193	-0.576142	-0.501683
H66	H	0.433975	-0.286945	-0.287321
H67	H	0.686821	-0.286933	-0.287293
H68	H	0.835553	-0.286918	-0.287275
H69	H	1.225539	-0.825652	-0.287214
O70	O	1.233435	-0.670608	-0.279273
C71	C	1.277778	-0.724365	-0.235003
H72	H	1.280501	-0.782775	-0.267172
H73	H	1.339621	-0.700635	-0.226679
H74	H	1.249072	-0.733154	-0.175362
O75	O	1.233546	-0.923454	-0.279326
C76	C	1.277894	-0.977203	-0.235052
H77	H	1.280618	-1.035617	-0.267215
H78	H	1.339735	-0.953469	-0.226733
H79	H	1.249190	-0.985987	-0.175410
O80	O	1.035621	-0.278980	-0.671345
C81	C	1.080321	-0.228303	-0.623932
H82	H	1.142152	-0.223447	-0.648645
H83	H	1.051953	-0.167894	-0.623018
H84	H	1.083004	-0.252586	-0.561793
H85	H	1.225648	-1.078508	-0.287263
H86	H	1.043210	-0.676947	-0.469183
H87	H	1.043391	-1.078525	-0.469272
O88	O	1.035349	-0.923472	-0.477140
C89	C	0.991050	-0.977233	-0.521434
H90	H	0.988371	-1.035696	-0.489289
H91	H	0.929190	-0.953589	-0.529752
H92	H	1.019767	-0.985887	-0.581077
H93	H	0.686846	-0.469324	-0.469114
O94	O	1.035491	-0.832201	-0.477132
C95	C	1.080170	-0.879535	-0.527893
H96	H	1.139680	-0.891788	-0.500265
H97	H	1.048213	-0.937201	-0.538393
H98	H	1.088745	-0.847892	-0.586068
O99	O	1.233456	-0.476988	-1.085683
C100	C	1.277742	-0.521300	-1.031913
H101	H	1.245576	-0.524026	-0.973472
H102	H	1.286088	-0.583143	-1.055579
H103	H	1.337373	-0.492564	-1.023208
H104	H	1.225503	-0.469075	-0.930641
H105	H	1.225500	-0.469087	-0.826513
O106	O	1.233275	-0.476997	-0.671227
C107	C	1.222513	-0.466242	-0.590082
H108	H	1.161944	-0.440531	-0.578888
H109	H	1.227801	-0.525049	-0.558911
H110	H	1.269089	-0.424450	-0.566833
O111	O	1.035517	-0.278947	-0.832876
C112	C	0.991208	-0.234658	-0.779129
H113	H	1.023350	-0.231958	-0.720695
H114	H	0.982874	-0.172804	-0.802834
H115	H	0.931573	-0.263396	-0.770396
O116	O	1.035520	-0.279112	-0.924147
C117	C	0.984777	-0.323808	-0.876720
H118	H	1.012429	-0.383302	-0.864423
H119	H	0.974265	-0.291846	-0.819081
H120	H	0.926606	-0.332419	-0.908303
O121	O	0.589128	-0.477147	-0.477110
C122	C	0.569120	-0.460105	-0.555378
H123	H	0.546605	-0.397402	-0.559457
H124	H	0.623047	-0.466909	-0.594140
H125	H	0.521530	-0.502220	-0.575827
O126	O	1.035568	-0.278890	-1.085727
C127	C	0.991257	-0.234603	-1.031979
H128	H	1.023400	-0.231899	-0.973546
H129	H	0.982918	-0.172750	-1.055686
H130	H	0.931625	-0.263345	-1.023243
H131	H	0.835564	-0.469321	-0.469094
