data_functionalizedCrystal
_audit_creation_method	'MofGen! by Chris Wilmer'
_symmetry_space_group_name_H-M	'P1'
_symmetry_Int_Tables_number	1
_symmetry_cell_setting	triclinic
loop_
_symmetry_equiv_pos_as_xyz
  x,y,z
_cell_length_a	17.917603
_cell_length_b	21.606444
_cell_length_c	21.606444
_cell_angle_alpha	90.001146
_cell_angle_beta	57.013278
_cell_angle_gamma	63.033015
loop_
_atom_site_label
_atom_site_type_symbol
_atom_site_fract_x
_atom_site_fract_y
_atom_site_fract_z
Zr1	Zr	0.818590	0.627138	-0.112102
O2	O	0.974616	0.534200	-0.216815
O3	O	0.662564	0.651546	-0.075918
O4	O	0.818584	0.657434	-0.210923
O5	O	0.818602	0.528312	0.020040
O6	O	0.818578	0.759288	-0.210921
O7	O	0.818597	0.528312	-0.081810
O8	O	0.539488	0.748755	0.030579
O9	O	1.097693	0.538844	-0.221460
O10	O	0.726736	0.742901	-0.065418
O11	O	0.726744	0.666889	0.010590
O12	O	0.910437	0.673821	-0.148362
O13	O	0.910445	0.597809	-0.072354
Zr14	Zr	0.818590	0.789584	0.050340
Zr15	Zr	0.818582	0.789584	-0.112098
Zr16	Zr	0.818599	0.627139	0.050337
Zr17	Zr	1.014883	0.634546	-0.119510
Zr18	Zr	0.622298	0.782176	0.057749
O19	O	0.974616	0.765176	0.014157
O20	O	0.974604	0.765176	-0.216810
O21	O	0.974628	0.534200	0.014151
O22	O	0.662564	0.882522	0.155054
O23	O	0.662552	0.882522	-0.075912
O24	O	0.662576	0.651546	0.155048
O25	O	0.818578	0.888410	-0.081801
O26	O	0.818597	0.759288	0.149162
O27	O	0.818602	0.657434	0.149160
O28	O	0.818584	0.888410	0.020048
O29	O	1.097686	0.667967	-0.221457
O30	O	0.539495	0.748756	0.159696
O31	O	0.539488	0.877878	0.159699
O32	O	0.539481	0.877878	0.030582
O33	O	1.097699	0.538844	-0.092343
O34	O	1.097693	0.667967	-0.092340
O35	O	0.726744	0.742901	0.086601
O36	O	0.726736	0.818914	0.010593
O37	O	0.910437	0.749834	-0.072351
O38	O	0.910445	0.673821	0.003657
C39	C	0.573059	0.699095	-0.021614
C40	C	0.489727	0.695951	-0.018469
C41	C	0.818601	0.708361	0.172305
C42	C	0.818604	0.708361	0.241264
C43	C	0.818580	0.911555	-0.030876
C44	C	0.818576	0.980518	-0.030874
C45	C	0.337158	0.690205	-0.012725
C46	C	0.300017	0.726515	-0.049034
C47	C	0.215123	0.723318	-0.045838
C48	C	0.422061	0.693401	-0.015920
C49	C	1.064122	0.717627	-0.040147
C50	C	1.147453	0.720772	-0.043292
C51	C	0.818601	0.505167	-0.030885
C52	C	0.818604	0.436205	-0.030887
C53	C	0.722687	1.048975	0.012423
C54	C	0.722690	1.113770	0.012419
C55	C	0.818583	1.110106	-0.030879
C56	C	0.914480	1.041641	-0.074182
C57	C	0.914476	0.976847	-0.074181
C58	C	0.914498	1.302945	-0.074185
C59	C	0.914495	1.367745	-0.074180
C60	C	0.722712	1.439867	0.012415
C61	C	0.722708	1.375074	0.012415
C62	C	0.818604	1.306615	-0.030890
C63	C	0.818600	1.236357	-0.030886
C64	C	0.818589	1.180362	-0.030879
C65	C	0.818580	0.708361	-0.234066
C66	C	0.818576	0.708361	-0.303025
C67	C	0.914494	0.672304	0.230368
C68	C	0.914491	0.672300	0.295165
C69	C	0.818597	0.708359	0.370858
C70	C	0.722701	0.744418	0.381754
C71	C	0.722705	0.744416	0.316957
C72	C	0.722682	0.744423	0.643073
C73	C	0.722686	0.744424	0.707871
C74	C	0.914468	0.672307	0.621281
C75	C	0.914472	0.672305	0.556484
C76	C	0.818576	0.708361	0.567385
C77	C	0.818581	0.708363	0.497123
C78	C	0.818592	0.708362	0.441119
C79	C	0.573048	0.902290	-0.021609
C80	C	0.489713	0.968107	-0.018462
C81	C	0.573069	0.699095	0.181572
C82	C	0.489741	0.695951	0.253676
C83	C	0.573059	0.902290	0.181576
C84	C	0.489727	0.968107	0.253682
C85	C	1.064122	0.514433	-0.243338
C86	C	1.147453	0.448615	-0.315444
C87	C	1.064133	0.514433	-0.040152
C88	C	1.147467	0.448615	-0.043299
C89	C	1.064111	0.717627	-0.243333
C90	C	1.147439	0.720771	-0.315437
C91	C	0.450578	0.959338	-0.056668
C92	C	0.372287	1.021175	-0.053727
C93	C	0.333127	1.091780	-0.012575
C94	C	0.372270	1.100548	0.025632
C95	C	0.450565	1.038712	0.022686
C96	C	0.450610	0.734152	0.327221
C97	C	0.372326	0.731194	0.394976
C98	C	0.333169	0.690040	0.389186
C99	C	0.372308	0.651835	0.315633
C100	C	0.450596	0.654788	0.247879
C101	C	0.450590	1.038700	0.247869
C102	C	0.372302	1.100550	0.315614
C103	C	0.333148	1.091804	0.389171
C104	C	0.372293	1.021203	0.394983
C105	C	0.450585	0.959356	0.327239
C106	C	1.186600	0.378022	-0.309631
C107	C	1.264912	0.316174	-0.377376
C108	C	1.304070	0.324920	-0.450934
C109	C	1.264920	0.395520	-0.456745
C110	C	1.186615	0.457367	-0.389000
C111	C	1.186610	0.457385	-0.005100
C112	C	1.264923	0.395549	-0.008060
C113	C	1.304086	0.324944	-0.049214
C114	C	1.264940	0.316176	-0.087418
C115	C	1.186634	0.378011	-0.084462
C116	C	1.186571	0.761933	-0.309621
C117	C	1.264856	0.764902	-0.377364
C118	C	1.304013	0.726705	-0.450923
C119	C	1.264873	0.685542	-0.456737
C120	C	1.186584	0.682578	-0.388994
H121	H	0.331979	0.760002	-0.082519
H122	H	0.992551	0.642946	0.612411
F123	F	1.306564	0.644889	-0.535030
F124	F	0.249821	1.157635	0.461265
F125	F	0.249797	1.157585	-0.009446
H126	H	1.154701	0.793037	-0.249733
H127	H	0.482462	0.901854	-0.090188
F128	F	0.620646	1.378980	0.058504
F129	F	1.016558	0.633928	0.149811
F130	F	0.330623	0.608038	0.309482
F131	F	0.330682	0.771863	0.473249
H132	H	1.154742	0.514845	-0.393743
H133	H	1.296838	0.258681	-0.120925
H134	H	1.296783	0.402702	0.023054
F135	F	0.492230	0.614130	0.169609
H136	H	0.340374	1.158042	0.059137
F137	F	0.492251	1.048025	0.169590
H138	H	1.154730	0.514869	0.028418
F139	F	1.016559	1.230093	-0.120266
H140	H	0.992558	1.038662	-0.109439
F141	F	1.144977	0.368666	-0.125117
H142	H	1.296715	0.798420	-0.372615
F143	F	1.387337	0.729865	-0.523015
F144	F	1.016534	0.903988	-0.120268
H145	H	0.992573	0.642939	0.286286
F146	F	0.295382	0.646441	0.031042
F147	F	0.620622	1.052884	0.058511
H148	H	0.644598	0.773784	0.651959
F149	F	0.620631	1.186628	0.058502
F150	F	0.620644	0.782790	0.462314
F151	F	0.492201	1.048056	0.063358
H152	H	1.154722	0.370887	-0.249742
F153	F	1.387410	0.259089	-0.523028
H154	H	1.154732	0.649057	-0.393741
F155	F	0.620650	1.512733	0.058505
H156	H	0.992587	1.364754	-0.109437
H157	H	0.992558	0.642945	0.494853
H158	H	0.340427	1.014021	-0.084840
H159	H	0.644593	0.773787	0.769506
H160	H	0.644622	0.773777	0.325834
F161	F	0.249846	0.686904	0.461303
F162	F	0.330652	1.175681	0.309412
F163	F	0.492266	0.777959	0.333402
H164	H	0.482440	0.901878	0.331983
F165	F	0.330611	1.011907	0.473275
H166	H	1.296775	0.258694	-0.372629
F167	F	1.306604	0.404817	-0.535037
H168	H	1.367848	0.274599	-0.051614
