data_functionalizedCrystal
_audit_creation_method	'MofGen! by Chris Wilmer'
_symmetry_space_group_name_H-M	'P1'
_symmetry_Int_Tables_number	1
_symmetry_cell_setting	triclinic
loop_
_symmetry_equiv_pos_as_xyz
  x,y,z
_cell_length_a	10.489741
_cell_length_b	17.699091
_cell_length_c	16.176319
_cell_angle_alpha	89.997684
_cell_angle_beta	90.003298
_cell_angle_gamma	96.087375
loop_
_atom_site_label
_atom_site_type_symbol
_atom_site_fract_x
_atom_site_fract_y
_atom_site_fract_z
O1	O	1.692078	-0.106778	0.068693
O2	O	2.192078	0.393222	0.568693
O3	O	1.320696	-0.116801	0.068706
O4	O	1.820696	0.383199	0.568706
O5	O	1.516874	-0.001669	0.068696
O6	O	2.016874	0.498331	0.568696
O7	O	1.495899	-0.221910	0.068703
O8	O	1.995899	0.278090	0.568703
O9	O	1.516851	-0.001669	-0.068797
O10	O	2.016851	0.498331	0.431203
O11	O	1.320673	-0.116801	-0.068787
O12	O	1.820673	0.383199	0.431213
O13	O	1.692055	-0.106778	-0.068800
O14	O	2.192055	0.393222	0.431200
Cu15	Cu	1.506362	-0.111789	-0.081348
Cu16	Cu	2.006362	0.388211	0.418652
Cu17	Cu	1.506389	-0.111790	0.081254
Cu18	Cu	2.006389	0.388210	0.581254
O19	O	1.495876	-0.221909	-0.068790
O20	O	1.995876	0.278091	0.431210
C21	C	1.273167	-0.116044	-0.000039
C22	C	1.773167	0.383956	0.499961
C23	C	1.131580	-0.113779	-0.000034
C24	C	1.631580	0.386221	0.499966
C25	C	1.516110	0.026533	-0.000049
C26	C	2.016110	0.526533	0.499951
C27	C	1.513850	0.110565	-0.000046
C28	C	2.013850	0.610565	0.499954
N29	N	1.506352	-0.111788	-0.195713
N30	N	2.006352	0.388212	0.304287
C31	C	1.064797	-0.040524	-0.000044
C32	C	1.564797	0.459476	0.499956
C33	C	0.972040	-0.075129	0.067746
C34	C	1.472040	0.424871	0.567746
C35	C	0.972051	-0.075146	-0.067811
C36	C	1.472051	0.424854	0.432189
C37	C	1.040687	-0.148414	0.067812
C38	C	1.540687	0.351586	0.567812
C39	C	1.040708	-0.148421	-0.067806
C40	C	1.540708	0.351579	0.432194
C41	C	0.947978	-0.183079	0.000001
C42	C	1.447978	0.316921	0.500001
C43	C	1.739584	-0.107535	-0.000053
C44	C	2.239584	0.392465	0.499947
C45	C	1.881171	-0.109800	-0.000053
C46	C	2.381171	0.390200	0.499947
C47	C	1.512804	0.150039	0.074902
C48	C	2.012804	0.650039	0.574902
C49	C	1.510673	0.228996	0.074902
C50	C	2.010673	0.728996	0.574902
C51	C	1.509597	0.268478	-0.000047
C52	C	2.009597	0.768478	0.499953
C53	C	1.510639	0.228998	-0.075001
C54	C	2.010639	0.728998	0.424999
C55	C	1.512761	0.150042	-0.075000
C56	C	2.012761	0.650042	0.425000
C57	C	1.502079	0.547419	-0.075005
C58	C	2.002079	1.047419	0.424995
C59	C	1.499960	0.626381	-0.075000
C60	C	1.999960	1.126381	0.425000
C61	C	1.499990	0.626373	0.074897
C62	C	1.999990	1.126373	0.574897
C63	C	1.502113	0.547417	0.074898
C64	C	2.002113	1.047417	0.574898
C65	C	1.503148	0.507944	-0.000056
C66	C	2.003148	1.007944	0.499944
C67	C	1.505457	0.422330	-0.000055
C68	C	2.005457	0.922330	0.499945
C69	C	1.507297	0.354092	-0.000048
C70	C	2.007297	0.854092	0.499952
C71	C	1.496642	0.749889	-0.000046
C72	C	1.996642	1.249889	0.499954
C73	C	1.498905	0.665856	-0.000051
C74	C	1.998905	1.165856	0.499949
C75	C	1.583561	-0.158142	-0.238975
C76	C	2.083561	0.341858	0.261025
C77	C	1.583575	-0.158139	-0.325522
C78	C	2.083575	0.341861	0.174478
C79	C	1.506372	-0.111786	-0.368806
C80	C	2.006372	0.388214	0.131194
C81	C	1.429159	-0.065427	-0.325538
C82	C	1.929159	0.434573	0.174462
C83	C	1.429153	-0.065427	-0.238992
C84	C	1.929153	0.434573	0.261008
C85	C	1.429183	-0.065429	-0.674566
C86	C	1.929183	0.434571	-0.174566
C87	C	1.429192	-0.065434	-0.761118
C88	C	1.929192	0.434566	-0.261118
C89	C	1.583605	-0.158141	-0.761096
C90	C	2.083605	0.341859	-0.261096
C91	C	1.583599	-0.158140	-0.674550
C92	C	2.083599	0.341860	-0.174550
C93	C	1.506392	-0.111779	-0.631290
C94	C	2.006392	0.388221	-0.131290
C95	C	1.506380	-0.111781	-0.537446
C96	C	2.006380	0.388219	-0.037446
C97	C	1.506376	-0.111787	-0.462648
C98	C	2.006376	0.388213	0.037352
N99	N	1.506409	-0.111785	0.195619
N100	N	2.006409	0.388215	0.695619
H101	H	1.115603	0.019696	0.000039
H102	H	1.615603	0.519696	0.500039
H103	H	1.499081	0.658525	-0.136036
H104	H	1.999081	1.158525	0.363964
F105	F	0.932301	-0.034617	-0.142723
F106	F	1.432301	0.465383	0.357277
H107	H	1.509755	0.261150	-0.136025
H108	H	2.009755	0.761150	0.363975
H109	H	0.941610	-0.044134	0.125058
H110	H	1.441610	0.455866	0.625058
F111	F	1.498884	0.668390	0.154670
F112	F	1.998884	1.168390	0.654670
H113	H	1.070951	-0.179386	0.125189
H114	H	1.570951	0.320614	0.625189
F115	F	1.513873	0.108031	-0.154770
F116	F	2.013873	0.608031	0.345230
H117	H	1.366317	-0.027678	-0.639354
H118	H	1.866317	0.472322	-0.139354
F119	F	1.665754	-0.207484	-0.628489
F120	F	2.165754	0.292516	-0.128489
H121	H	0.897437	-0.243363	0.000040
H122	H	1.397437	0.256637	0.500040
F123	F	1.503264	0.505402	0.154668
F124	F	2.003264	1.005402	0.654668
F125	F	1.503164	0.505418	-0.154777
F126	F	2.003164	1.005418	0.345223
F127	F	1.080529	-0.188902	-0.142720
F128	F	1.580529	0.311098	0.357280
H129	H	1.513687	0.117899	0.135934
H130	H	2.013687	0.617899	0.635934
F131	F	1.346987	-0.016085	-0.192950
F132	F	1.846987	0.483915	0.307050
H133	H	1.646422	-0.195893	-0.203740
H134	H	2.146422	0.304107	0.296260
H135	H	1.509826	0.261133	0.135932
H136	H	2.009826	0.761133	0.635932
F137	F	1.665750	-0.207476	-0.371561
F138	F	2.165750	0.292524	0.128439
F139	F	1.346996	-0.016093	-0.371606
F140	F	1.846996	0.483907	0.128394
H141	H	1.646474	-0.195889	-0.796329
H142	H	2.146474	0.304111	-0.296329
F143	F	1.347018	-0.016096	-0.807182
F144	F	1.847018	0.483904	-0.307182
