data_functionalizedCrystal
_audit_creation_method	'MofGen! by Chris Wilmer'
_symmetry_space_group_name_H-M	'P1'
_symmetry_Int_Tables_number	1
_symmetry_cell_setting	triclinic
loop_
_symmetry_equiv_pos_as_xyz
  x,y,z
_cell_length_a	19.121063
_cell_length_b	13.897449
_cell_length_c	13.897431
_cell_angle_alpha	90.049745
_cell_angle_beta	92.361648
_cell_angle_gamma	87.529779
loop_
_atom_site_label
_atom_site_type_symbol
_atom_site_fract_x
_atom_site_fract_y
_atom_site_fract_z
Zn1	Zn	-0.279244	-1.458561	-0.561708
Zn2	Zn	0.054090	-1.125228	-0.228374
Zn3	Zn	0.387423	-0.791894	0.104959
Zn4	Zn	-0.396796	-1.451462	-0.407281
Zn5	Zn	-0.063463	-1.118128	-0.073948
Zn6	Zn	0.269871	-0.784795	0.259385
Zn7	Zn	-0.279370	-1.297161	-0.400433
Zn8	Zn	0.053963	-0.963828	-0.067100
Zn9	Zn	0.387297	-0.630494	0.266233
Zn10	Zn	-0.396657	-1.290328	-0.568526
Zn11	Zn	-0.063324	-0.956995	-0.235193
Zn12	Zn	0.270010	-0.623662	0.098140
O13	O	-0.338017	-1.374378	-0.484487
O14	O	-0.004683	-1.041045	-0.151154
O15	O	0.328650	-0.707711	0.182179
O16	O	-0.294843	-1.592600	-0.541235
O17	O	0.038491	-1.259267	-0.207902
O18	O	0.371824	-0.925934	0.125431
O19	O	-0.381330	-1.430882	-0.271398
O20	O	-0.047997	-1.097548	0.061936
O21	O	0.285336	-0.764215	0.395269
O22	O	-0.181072	-1.324401	-0.416107
O23	O	0.152261	-0.991068	-0.082774
O24	O	0.485595	-0.657735	0.250560
O25	O	-0.381208	-1.587385	-0.427779
O26	O	-0.047874	-1.254051	-0.094446
O27	O	0.285459	-0.920718	0.238888
O28	O	-0.180979	-1.442981	-0.534595
O29	O	0.152354	-1.109648	-0.201262
O30	O	0.485687	-0.776315	0.132072
O31	O	-0.295058	-1.317518	-0.266366
O32	O	0.038276	-0.984184	0.066967
O33	O	0.371609	-0.650851	0.400300
O34	O	-0.294923	-1.161273	-0.422719
O35	O	0.038410	-0.827940	-0.089385
O36	O	0.371744	-0.494607	0.243948
O37	O	-0.380971	-1.312756	-0.702597
O38	O	-0.047638	-0.979423	-0.369264
O39	O	0.285696	-0.646090	-0.035931
O40	O	-0.381093	-1.156253	-0.546216
O41	O	-0.047760	-0.822920	-0.212883
O42	O	0.285573	-0.489587	0.120451
O43	O	-0.294708	-1.436356	-0.697588
O44	O	0.038626	-1.103023	-0.364254
O45	O	0.371959	-0.769689	-0.030921
O46	O	-0.495059	-1.424257	-0.434390
O47	O	-0.161725	-1.090923	-0.101057
O48	O	0.171608	-0.757590	0.232276
O49	O	-0.494957	-1.305873	-0.552856
O50	O	-0.161623	-0.972539	-0.219523
O51	O	0.171710	-0.639206	0.113810
C52	C	-0.338007	-1.123764	-0.484465
C53	C	-0.004674	-0.790431	-0.151131
C54	C	0.328659	-0.457098	0.182202
C55	C	-0.338020	-1.016550	-0.484479
C56	C	-0.004687	-0.683216	-0.151146
C57	C	0.328646	-0.349883	0.182188
C58	C	-0.520491	-1.363579	-0.495127
C59	C	-0.187158	-1.030246	-0.161794
C60	C	0.146176	-0.696912	0.171539
C61	C	-0.598554	-1.359048	-0.499712
C62	C	-0.265221	-1.025714	-0.166378
C63	C	0.068113	-0.692381	0.166955
C64	C	-0.337810	-1.374586	-0.736069
C65	C	-0.004476	-1.041253	-0.402735
C66	C	0.328857	-0.707919	-0.069402
C67	C	-0.337722	-1.374675	-0.843278
C68	C	-0.004388	-1.041341	-0.509944
C69	C	0.328945	-0.708008	-0.176611
C70	C	-0.635258	-1.418603	-0.440237
C71	C	-0.301925	-1.085269	-0.106904
C72	C	0.031409	-0.751936	0.226429
C73	C	-0.708607	-1.414347	-0.444555
C74	C	-0.375273	-1.081013	-0.111221
C75	C	-0.041940	-0.747680	0.222112
C76	C	-0.745250	-1.350530	-0.508342
C77	C	-0.411917	-1.017196	-0.175008
C78	C	-0.078583	-0.683863	0.158325
C79	C	-0.708541	-1.290972	-0.567822
C80	C	-0.375207	-0.957639	-0.234489
C81	C	-0.041874	-0.624305	0.098845
C82	C	-0.635193	-1.295234	-0.563509
C83	C	-0.301860	-0.961900	-0.230176
C84	C	0.031473	-0.628567	0.103157
C85	C	-0.966710	-1.334580	-0.524451
C86	C	-0.633377	-1.001247	-0.191118
C87	C	-0.300043	-0.667914	0.142215
C88	C	-1.040063	-1.330321	-0.528758
C89	C	-0.706729	-0.996988	-0.195424
C90	C	-0.373396	-0.663654	0.137909
C91	C	-1.040123	-1.453698	-0.405491
C92	C	-0.706790	-1.120364	-0.072158
C93	C	-0.373457	-0.787031	0.261176
C94	C	-0.966775	-1.457949	-0.401180
C95	C	-0.633441	-1.124616	-0.067846
C96	C	-0.300108	-0.791283	0.265487
C97	C	-0.930072	-1.398396	-0.460664
C98	C	-0.596739	-1.065062	-0.127330
C99	C	-0.263405	-0.731729	0.206003
C100	C	-0.820224	-1.346175	-0.512754
C101	C	-0.486891	-1.012842	-0.179420
C102	C	-0.153557	-0.679509	0.153913
C103	C	-0.855099	-1.402755	-0.456256
C104	C	-0.521766	-1.069422	-0.122922
C105	C	-0.188432	-0.736089	0.210411
C106	C	-0.154830	-1.385245	-0.473827
C107	C	0.178503	-1.051912	-0.140493
C108	C	0.511837	-0.718579	0.192840
C109	C	-0.076767	-1.389876	-0.469284
C110	C	0.256567	-1.056543	-0.135950
C111	C	0.589900	-0.723210	0.197383
C112	C	-0.338027	-1.625970	-0.484510
C113	C	-0.004693	-1.292637	-0.151177
C114	C	0.328640	-0.959304	0.182156
C115	C	-0.338031	-1.733184	-0.484520
C116	C	-0.004697	-1.399851	-0.151187
C117	C	0.328636	-1.066517	0.182146
C118	C	-0.338023	-0.820254	-0.484504
C119	C	-0.004689	-0.486921	-0.151171
C120	C	0.328644	-0.153588	0.182162
C121	C	-0.338019	-0.929487	-0.484487
C122	C	-0.004686	-0.596154	-0.151154
C123	C	0.328648	-0.262820	0.182179
C124	C	-0.338172	-1.374229	-0.233881
C125	C	-0.004839	-1.040896	0.099452
C126	C	0.328495	-0.707563	0.432785
C127	C	-0.338062	-1.374339	-0.126661
C128	C	-0.004729	-1.041006	0.206672
C129	C	0.328604	-0.707672	0.540005
C130	C	-0.337963	-1.374445	-0.039586
C131	C	-0.004629	-1.041112	0.293747
C132	C	0.328704	-0.707778	0.627081
C133	C	-0.337831	-1.374575	0.069654
C134	C	-0.004497	-1.041242	0.402987
C135	C	0.328836	-0.707909	0.736320
H136	H	-0.605428	-1.470565	-0.388291
H137	H	-0.272095	-1.137232	-0.054958
H138	H	0.061239	-0.803898	0.278375
H139	H	-0.936832	-1.286087	-0.572884
H140	H	-0.603499	-0.952754	-0.239550
H141	H	-0.270166	-0.619421	0.093783
H142	H	-0.825262	-1.454719	-0.404324
H143	H	-0.491929	-1.121385	-0.070991
H144	H	-0.158595	-0.788052	0.262343
C145	C	-1.080369	-1.260121	-0.598938
C146	C	-0.747035	-0.926787	-0.265604
C147	C	-0.413702	-0.593454	0.067729
N148	N	-1.110727	-1.207249	-0.651795
N149	N	-0.777394	-0.873916	-0.318462
N150	N	-0.444061	-0.540583	0.014871
C151	C	-0.748978	-1.479856	-0.379122
C152	C	-0.415645	-1.146523	-0.045788
C153	C	-0.082311	-0.813190	0.287545
N154	N	-0.779385	-1.529200	-0.329833
N155	N	-0.446052	-1.195867	0.003500
N156	N	-0.112718	-0.862533	0.336833
H157	H	-0.936941	-1.509914	-0.349239
H158	H	-0.603608	-1.176581	-0.015906
H159	H	-0.270275	-0.843248	0.317427
C160	C	-0.594819	-1.229719	-0.628936
C161	C	-0.261486	-0.896385	-0.295603
C162	C	0.071847	-0.563052	0.037731
N163	N	-0.564410	-1.180373	-0.678220
N164	N	-0.231077	-0.847040	-0.344887
N165	N	0.102256	-0.513706	-0.011554
H166	H	-0.850067	-1.294214	-0.564687
H167	H	-0.516734	-0.960880	-0.231354
H168	H	-0.183401	-0.627547	0.101979
H169	H	-1.070015	-1.502184	-0.357064
H170	H	-0.736681	-1.168851	-0.023730
H171	H	-0.403348	-0.835518	0.309603
C172	C	-0.748851	-1.220769	-0.637985
C173	C	-0.415518	-0.887436	-0.304652
C174	C	-0.082184	-0.554103	0.028681
N175	N	-0.779212	-1.167887	-0.690830
N176	N	-0.445879	-0.834554	-0.357496
N177	N	-0.112545	-0.501220	-0.024163
