data_functionalizedCrystal
_audit_creation_method	'MofGen! by Chris Wilmer'
_symmetry_space_group_name_H-M	'P1'
_symmetry_Int_Tables_number	1
_symmetry_cell_setting	triclinic
loop_
_symmetry_equiv_pos_as_xyz
  x,y,z
_cell_length_a	12.759395
_cell_length_b	12.759394
_cell_length_c	21.395355
_cell_angle_alpha	90.012883
_cell_angle_beta	90.021081
_cell_angle_gamma	90.013701
loop_
_atom_site_label
_atom_site_type_symbol
_atom_site_fract_x
_atom_site_fract_y
_atom_site_fract_z
Zn1	Zn	1.606292	-0.418393	0.354228
Zn2	Zn	1.606180	-0.594057	0.249461
Zn3	Zn	1.430585	-0.418392	0.249471
Zn4	Zn	1.430585	-0.594030	0.354207
O5	O	1.518410	-0.506218	0.301842
O6	O	1.753298	-0.441706	0.340335
O7	O	1.582840	-0.570766	0.161784
O8	O	1.453940	-0.271371	0.263380
O9	O	1.753216	-0.570767	0.263363
O10	O	1.583031	-0.271371	0.340345
O11	O	1.453831	-0.441706	0.161792
O12	O	1.283564	-0.441679	0.263360
O13	O	1.453940	-0.570720	0.441888
O14	O	1.283564	-0.570719	0.340309
O15	O	1.583031	-0.441680	0.441903
O16	O	1.582840	-0.741075	0.263343
O17	O	1.453831	-0.741054	0.340300
C18	C	1.245443	-0.506197	0.301834
C19	C	1.128666	-0.506213	0.301846
C20	C	1.128733	-0.372041	0.382126
C21	C	1.073905	-0.304967	0.422271
C22	C	0.964183	-0.304985	0.422279
C23	C	0.909287	-0.372083	0.382136
C24	C	0.964115	-0.439157	0.341991
C25	C	1.073839	-0.439133	0.341989
C26	C	0.964048	-0.573323	0.261708
C27	C	1.073770	-0.573311	0.261702
C28	C	0.909152	-0.640420	0.221565
C29	C	0.963979	-0.707500	0.181422
C30	C	1.073708	-0.707480	0.181416
C31	C	1.128598	-0.640384	0.221557
C32	C	1.518352	-0.779185	0.301831
C33	C	1.518423	-0.895962	0.301848
C34	C	1.652745	-0.895804	0.382051
C35	C	1.719939	-0.950586	0.422157
C36	C	1.720002	-1.060308	0.422171
C37	C	1.652861	-1.115250	0.382075
C38	C	1.585667	-1.060468	0.341969
C39	C	1.585614	-0.950744	0.341958
C40	C	1.451341	-1.060626	0.261770
C41	C	1.451282	-0.950904	0.261752
C42	C	1.384200	-1.115568	0.221674
C43	C	1.317009	-1.060786	0.181564
C44	C	1.316951	-0.951058	0.181551
C45	C	1.384088	-0.896123	0.221646
C46	C	1.792444	-0.506240	0.301850
C47	C	1.909221	-0.506249	0.301853
C48	C	1.518498	-0.506197	0.465265
C49	C	1.518535	-0.506188	0.534906
C50	C	1.518498	-0.232184	0.301866
C51	C	1.518535	-0.115408	0.301876
C52	C	1.518384	-0.506163	0.139054
C53	C	1.518550	-0.505876	0.069413
C54	C	1.585750	-0.438994	0.567628
C55	C	1.585748	-0.438949	0.633064
C56	C	1.518543	-0.506116	0.665775
C57	C	1.451315	-0.573315	0.633045
C58	C	1.451311	-0.573350	0.567611
C59	C	1.510227	-0.600715	0.769446
C60	C	1.510239	-0.600681	0.834879
C61	C	1.518550	-0.506005	0.867596
C62	C	1.526871	-0.411360	0.834871
C63	C	1.526867	-0.411396	0.769437
C64	C	1.518540	-0.506084	0.736727
C65	C	1.585766	-0.438756	0.971270
C66	C	1.585758	-0.438709	1.036707
C67	C	1.451330	-0.573085	1.036687
C68	C	1.451333	-0.573122	0.971251
C69	C	1.518557	-0.505960	0.938547
H70	H	0.819946	-0.372084	0.382141
H71	H	1.118342	-0.762096	0.148723
Cl72	Cl	1.266534	-0.640357	0.221556
H73	H	1.262229	-0.906461	0.148894
H74	H	1.396599	-0.627763	1.063319
H75	H	1.652711	-0.806463	0.382038
H76	H	1.396606	-0.627845	0.944609
H77	H	1.774603	-0.905842	0.454804
H78	H	1.533640	-0.334333	0.742795
H79	H	1.396593	-0.627999	0.659682
H80	H	1.774706	-1.104911	0.454836
H81	H	1.262344	-1.105529	0.148924
Cl82	Cl	1.653091	-1.253186	0.382004
H83	H	1.533640	-0.334266	0.861507
H84	H	1.503469	-0.677747	0.861518
H85	H	0.919274	-0.762121	0.148738
Cl86	Cl	1.366806	-0.657831	0.526472
H87	H	1.384051	-0.806781	0.221637
H88	H	1.118614	-0.250336	0.454954
Cl89	Cl	0.895254	-0.220657	0.472744
H90	H	1.384251	-1.204909	0.221690
Cl91	Cl	0.771215	-0.640439	0.221572
Cl92	Cl	1.499810	-0.719751	0.728324
Cl93	Cl	1.670232	-0.354449	0.674209
Cl94	Cl	1.670253	-0.354554	0.526518
Cl95	Cl	1.670281	-0.354245	1.077844
Cl96	Cl	1.266669	-0.372025	0.382127
Cl97	Cl	1.670269	-0.354320	0.930153
