data_functionalizedCrystal
_audit_creation_method	'MofGen! by Chris Wilmer'
_symmetry_space_group_name_H-M	'P1'
_symmetry_Int_Tables_number	1
_symmetry_cell_setting	triclinic
loop_
_symmetry_equiv_pos_as_xyz
  x,y,z
_cell_length_a	17.699077
_cell_length_b	13.339070
_cell_length_c	16.176319
_cell_angle_alpha	89.996815
_cell_angle_beta	89.993140
_cell_angle_gamma	99.454935
loop_
_atom_site_label
_atom_site_type_symbol
_atom_site_fract_x
_atom_site_fract_y
_atom_site_fract_z
O1	O	1.031103	0.127834	-0.068733
O2	O	1.531103	0.627834	0.431267
O3	O	0.814241	0.144476	-0.068736
O4	O	1.314241	0.644476	0.431264
O5	O	0.897783	-0.011047	-0.068732
O6	O	1.397783	0.488953	0.431268
O7	O	0.947561	0.283357	-0.068736
O8	O	1.447561	0.783357	0.431264
O9	O	0.897765	-0.011057	0.068761
O10	O	1.397765	0.488943	0.568761
O11	O	0.814223	0.144466	0.068757
O12	O	1.314223	0.644466	0.568757
O13	O	1.031085	0.127824	0.068761
O14	O	1.531085	0.627824	0.568761
Cu15	Cu	0.922652	0.136144	0.081313
Cu16	Cu	1.422652	0.636144	0.581313
Cu17	Cu	0.922674	0.136156	-0.081289
Cu18	Cu	1.422674	0.636156	0.418711
O19	O	0.947543	0.283347	0.068757
O20	O	1.447543	0.783347	0.568757
C21	C	0.785909	0.143875	0.000010
C22	C	1.285909	0.643875	0.500010
C23	C	0.701514	0.142090	0.000008
C24	C	1.201514	0.642090	0.500008
C25	C	0.661859	0.141243	0.074957
C26	C	1.161859	0.641243	0.574957
C27	C	0.582558	0.139549	0.074958
C28	C	1.082558	0.639549	0.574958
C29	C	0.542915	0.138709	0.000009
C30	C	1.042915	0.638709	0.500009
C31	C	0.582575	0.139553	-0.074945
C32	C	1.082575	0.639553	0.425055
C33	C	0.661873	0.141239	-0.074945
C34	C	1.161873	0.641239	0.425055
C35	C	0.262773	0.132748	-0.074946
C36	C	0.762773	0.632748	0.425054
C37	C	0.183470	0.131064	-0.074941
C38	C	0.683470	0.631064	0.425059
C39	C	0.183458	0.131058	0.074956
C40	C	0.683458	0.631058	0.574956
C41	C	0.262756	0.132744	0.074956
C42	C	0.762756	0.632744	0.574956
C43	C	0.302409	0.133583	0.000003
C44	C	0.802409	0.633583	0.500003
C45	C	0.388396	0.135418	0.000003
C46	C	0.888396	0.635418	0.500003
C47	C	0.456930	0.136881	0.000009
C48	C	0.956930	0.636881	0.500009
C49	C	0.889366	-0.048720	0.000013
C50	C	1.389366	0.451280	0.500013
C51	C	0.864303	-0.160959	0.000009
C52	C	1.364303	0.339041	0.500009
C53	C	1.059182	-0.526237	0.000013
C54	C	1.559182	-0.026237	0.500013
C55	C	1.082733	-0.420783	0.000021
C56	C	1.582733	0.079217	0.500021
C57	C	1.028127	-0.355822	0.000018
C58	C	1.528127	0.144178	0.500018
C59	C	0.949967	-0.396325	0.000007
C60	C	1.449967	0.103675	0.500007
C61	C	0.926414	-0.501790	0.000005
C62	C	1.426414	-0.001790	0.500005
C63	C	0.895359	-0.331375	0.000010
C64	C	1.395359	0.168625	0.500010
C65	C	0.817199	-0.371878	-0.000001
C66	C	1.317199	0.128122	0.499999
C67	C	0.793650	-0.477333	-0.000003
C68	C	1.293650	0.022667	0.499997
C69	C	0.848255	-0.542293	0.000000
C70	C	1.348255	-0.042293	0.500000
C71	C	0.918912	-0.225910	0.000012
C72	C	1.418912	0.274090	0.500012
C73	C	0.786144	-0.201463	0.000004
C74	C	1.286144	0.298537	0.500004
C75	C	0.762593	-0.306917	-0.000004
C76	C	1.262593	0.193083	0.499996
C77	C	1.059417	0.128425	0.000013
C78	C	1.559417	0.628425	0.500013
C79	C	1.143812	0.130210	0.000009
C80	C	1.643812	0.630210	0.500009
C81	C	0.955960	0.321020	0.000010
C82	C	1.455960	0.821020	0.500010
C83	C	0.981023	0.433259	0.000008
C84	C	1.481023	0.933259	0.500008
N85	N	0.922643	0.136135	0.195678
N86	N	1.422643	0.636135	0.695678
N87	N	0.922688	0.136157	-0.195654
N88	N	1.422688	0.636157	0.304346
C89	C	0.959656	0.067298	0.238944
C90	C	1.459656	0.567298	0.738944
C91	C	0.959660	0.067297	0.325491
C92	C	1.459660	0.567297	0.825491
C93	C	0.922654	0.136139	0.368771
C94	C	1.422654	0.636139	0.868771
C95	C	0.885636	0.204979	0.325499
C96	C	1.385636	0.704979	0.825499
C97	C	0.885628	0.204975	0.238953
C98	C	1.385628	0.704975	0.738953
C99	C	0.885665	0.204998	0.674527
C100	C	1.385665	0.704998	1.174527
C101	C	0.885678	0.205000	0.761079
C102	C	1.385678	0.705000	1.261079
C103	C	0.959698	0.067320	0.761065
C104	C	1.459698	0.567320	1.261065
C105	C	0.959690	0.067316	0.674520
C106	C	1.459690	0.567316	1.174520
C107	C	0.922668	0.136152	0.631255
C108	C	1.422668	0.636152	1.131255
C109	C	0.922664	0.136151	0.537411
C110	C	1.422664	0.636151	1.037411
C111	C	0.922663	0.136145	0.462613
C112	C	1.422663	0.636145	0.962613
H113	H	0.550290	0.138862	-0.135969
H114	H	1.050290	0.638862	0.364031
H115	H	0.855486	0.261028	0.203727
H116	H	1.355486	0.761028	0.703727
Br117	Br	0.715691	0.142380	-0.176665
Br118	Br	1.215691	0.642380	0.323335
H119	H	0.989827	0.011262	0.639284
H120	H	1.489827	0.511262	1.139284
Br121	Br	0.656522	-0.361899	-0.000023
Br122	Br	1.156522	0.138101	0.499977
Br123	Br	1.133280	-0.614399	0.000037
Br124	Br	1.633280	-0.114399	0.500037
Br125	Br	0.712031	-0.113310	0.000009
Br126	Br	1.212031	0.386690	0.500009
H127	H	0.694131	0.141935	0.135989
H128	H	1.194131	0.641935	0.635989
H129	H	0.829084	-0.628164	-0.000009
H130	H	1.329084	-0.128164	0.499991
Br131	Br	0.835425	0.298418	0.615816
Br132	Br	1.335425	0.798418	1.115816
H133	H	0.550272	0.138842	0.135988
H134	H	1.050272	0.638842	0.635988
H135	H	0.730007	-0.510306	-0.000006
H136	H	1.230007	-0.010306	0.499994
Br137	Br	0.316555	0.133894	0.176675
Br138	Br	0.816555	0.633894	0.676675
H139	H	0.855541	0.261061	0.796316
H140	H	1.355541	0.761061	1.296316
Br141	Br	1.188802	-0.365820	0.000018
Br142	Br	1.688802	0.134180	0.500018
H143	H	0.151194	0.130380	-0.135976
H144	H	0.651194	0.630380	0.364024
H145	H	0.151163	0.130370	0.135987
H146	H	0.651163	0.630370	0.635987
H147	H	0.855500	0.261028	0.360742
H148	H	1.355500	0.761028	0.860742
H149	H	0.295049	0.133428	-0.135978
H150	H	0.795049	0.633428	0.364022
Br151	Br	1.024982	-0.170954	0.000029
Br152	Br	1.524982	0.329046	0.500029
H153	H	0.989795	0.011243	0.203712
H154	H	1.489795	0.511243	0.703712
Br155	Br	1.009890	-0.026130	0.384212
Br156	Br	1.509890	0.473870	0.884212
H157	H	0.989840	0.011267	0.796300
H158	H	1.489840	0.511267	1.296300
H159	H	1.047307	-0.269957	0.000025
H160	H	1.547307	0.230043	0.500025
