data_functionalizedCrystal
_audit_creation_method	'MofGen! by Chris Wilmer'
_symmetry_space_group_name_H-M	'P1'
_symmetry_Int_Tables_number	1
_symmetry_cell_setting	triclinic
loop_
_symmetry_equiv_pos_as_xyz
  x,y,z
_cell_length_a	10.654558
_cell_length_b	10.654548
_cell_length_c	16.176319
_cell_angle_alpha	89.995070
_cell_angle_beta	89.993231
_cell_angle_gamma	84.486308
loop_
_atom_site_label
_atom_site_type_symbol
_atom_site_fract_x
_atom_site_fract_y
_atom_site_fract_z
O1	O	1.667839	0.176452	-0.068731
O2	O	1.302362	0.193247	-0.068735
O3	O	1.493505	0.002110	-0.068732
O4	O	1.476697	0.367589	-0.068735
O5	O	1.493478	0.002098	0.068762
O6	O	1.302335	0.193235	0.068758
O7	O	1.667812	0.176439	0.068762
Cu8	Cu	1.485071	0.184836	0.081314
Cu9	Cu	1.485103	0.184851	-0.081288
O10	O	1.476670	0.367576	0.068758
C11	C	1.255551	0.192005	0.000011
C12	C	1.116108	0.188309	0.000009
C13	C	1.492257	-0.044694	0.000014
C14	C	1.488566	-0.184137	0.000010
C15	C	1.483358	-0.380662	-0.074939
C16	C	1.486842	-0.249642	-0.074939
C17	C	1.486820	-0.249661	0.074964
C18	C	1.483345	-0.380680	0.074963
C19	C	1.481621	-0.446159	-0.149892
C20	C	1.483370	-0.380644	-0.224846
C21	C	1.486854	-0.249624	-0.224847
C22	C	1.488589	-0.184119	-0.149893
C23	C	0.919584	0.183121	-0.074938
C24	C	1.050607	0.186582	-0.074939
C25	C	1.050582	0.186562	0.074963
C26	C	0.919562	0.183091	0.074963
C27	C	0.854088	0.181406	-0.149892
C28	C	0.919606	0.183151	-0.224846
C29	C	1.050628	0.186613	-0.224847
C30	C	1.116133	0.188330	-0.149893
C31	C	1.714624	0.177681	0.000014
C32	C	1.854066	0.181377	0.000010
C33	C	1.477917	0.414380	0.000011
C34	C	1.481608	0.553824	0.000010
N35	N	1.485058	0.184825	0.195679
N36	N	1.485126	0.184852	-0.195653
C37	C	1.569722	0.100224	0.238945
C38	C	1.569729	0.100223	0.325492
C39	C	1.485076	0.184829	0.368772
C40	C	1.400403	0.269433	0.325500
C41	C	1.400392	0.269428	0.238955
C42	C	1.400446	0.269457	0.674528
C43	C	1.400467	0.269459	0.761080
C44	C	1.569783	0.100253	0.761066
C45	C	1.569772	0.100247	0.674520
C46	C	1.485095	0.184846	0.631256
C47	C	1.485088	0.184845	0.537412
C48	C	1.485089	0.184837	0.462614
H49	H	1.481967	-0.433989	-0.285871
O50	O	1.114475	0.188255	-0.297579
C51	C	1.244158	0.191714	-0.281512
H52	H	1.266897	0.152482	-0.217101
H53	H	1.269045	0.293277	-0.285060
C54	C	1.293554	0.159477	-0.425287
C55	C	1.321484	0.111282	-0.346178
H56	H	1.341254	0.109869	-0.465178
H57	H	1.206184	0.157151	-0.436113
H58	H	1.314293	0.244113	-0.428232
H59	H	1.300730	0.026655	-0.343231
H60	H	1.408853	0.113592	-0.335353
H61	H	1.638728	0.031364	0.796301
O62	O	1.114367	0.188075	0.147715
C63	C	1.203409	0.081490	0.152211
H64	H	1.227471	0.045815	0.087137
H65	H	1.162209	0.004118	0.189200
C66	C	1.294272	0.161586	0.274982
C67	C	1.323833	0.117776	0.195057
H68	H	1.368554	0.183966	0.301415
H69	H	1.234280	0.233393	0.271956
H70	H	1.259936	0.097102	0.305796
H71	H	1.358154	0.182265	0.164241
H72	H	1.383834	0.045981	0.198079
H73	H	1.638708	0.031358	0.639285
H74	H	1.331471	0.338317	0.360743
H75	H	0.866214	0.181695	0.135993
O76	O	1.652107	0.018011	0.367392
C77	C	1.726810	-0.056674	0.310634
H78	H	1.728648	-0.005173	0.248936
H79	H	1.685248	-0.150368	0.301447
C80	C	1.859818	-0.144516	0.420169
C81	C	1.862084	-0.081256	0.344391
H82	H	1.943260	-0.159686	0.440992
H83	H	1.809487	-0.094204	0.458409
H84	H	1.825177	-0.222587	0.412503
H85	H	1.896710	-0.003181	0.352060
H86	H	1.912425	-0.131557	0.306153
O87	O	1.318101	0.351688	0.802995
C88	C	1.243378	0.426376	0.746252
H89	H	1.241505	0.374870	0.684563
H90	H	1.284946	0.520063	0.737034
C91	C	1.110430	0.514240	0.855820
C92	C	1.108122	0.450975	0.780054
H93	H	1.026999	0.529420	0.876672
H94	H	1.160775	0.463926	0.894050
H95	H	1.145076	0.592306	0.848128
H96	H	1.073491	0.372905	0.787749
H97	H	1.057767	0.501277	0.741826
H98	H	1.638661	0.031334	0.203712
H99	H	1.222822	0.191142	-0.149900
H100	H	0.747402	0.178592	-0.149899
O101	O	1.318380	0.351706	0.632422
C102	C	1.386306	0.429835	0.582364
H103	H	1.484135	0.380718	0.569379
H104	H	1.395665	0.522729	0.615718
C105	C	1.195556	0.516370	0.516117
C106	C	1.315708	0.456039	0.500163
H107	H	1.152007	0.532539	0.465413
H108	H	1.149792	0.463737	0.549844
H109	H	1.203372	0.593774	0.543914
H110	H	1.307890	0.378629	0.472376
H111	H	1.361469	0.508660	0.466429
H112	H	1.331448	0.338316	0.203728
H113	H	1.478780	-0.552841	-0.149900
H114	H	1.491437	-0.077435	-0.149899
O115	O	1.488716	-0.185913	-0.297619
C116	C	1.599257	-0.123331	-0.302127
H117	H	1.674158	-0.172109	-0.259645
H118	H	1.577325	-0.021056	-0.281949
C119	C	1.556461	-0.067326	-0.443872
C120	C	1.648459	-0.127243	-0.391700
H121	H	1.586809	-0.069733	-0.499126
H122	H	1.481985	-0.109484	-0.440835
H123	H	1.538192	0.017898	-0.427047
H124	H	1.666714	-0.212468	-0.408520
H125	H	1.722939	-0.085099	-0.394743
O126	O	1.488268	-0.185942	0.147745
C127	C	1.381712	-0.096860	0.152210
H128	H	1.304788	-0.127069	0.109677
H129	H	1.408894	-0.000565	0.132068
C130	C	1.426984	-0.051719	0.293992
C131	C	1.332502	-0.088829	0.241757
H132	H	1.396632	-0.046760	0.349228
H133	H	1.498777	-0.111731	0.290983
H134	H	1.449628	0.028524	0.277197
H135	H	1.309872	-0.169076	0.258546
H136	H	1.260704	-0.028829	0.244770
O137	O	1.481589	-0.444127	0.147840
C138	C	1.483887	-0.358229	0.213996
H139	H	1.446676	-0.259976	0.192028
H140	H	1.584831	-0.356598	0.237042
C141	C	1.446008	-0.520001	0.311787
C142	C	1.400294	-0.399326	0.284807
H143	H	1.394449	-0.545353	0.355469
H144	H	1.444464	-0.577874	0.267218
H145	H	1.530127	-0.518627	0.330986
H146	H	1.316182	-0.400706	0.265599
H147	H	1.401821	-0.341454	0.329376
H148	H	0.866264	0.181745	-0.285871
