data_functionalizedCrystal
_audit_creation_method	'MofGen! by Chris Wilmer'
_symmetry_space_group_name_H-M	'P1'
_symmetry_Int_Tables_number	1
_symmetry_cell_setting	triclinic
loop_
_symmetry_equiv_pos_as_xyz
  x,y,z
_cell_length_a	38.066799
_cell_length_b	38.072482
_cell_length_c	38.071994
_cell_angle_alpha	89.984456
_cell_angle_beta	60.014252
_cell_angle_gamma	119.986148
loop_
_atom_site_label
_atom_site_type_symbol
_atom_site_fract_x
_atom_site_fract_y
_atom_site_fract_z
O1	O	0.309896	-0.240949	-0.010444
O2	O	0.237960	-0.189873	0.010401
O3	O	0.309867	-0.189876	-0.061512
O4	O	0.237989	-0.240947	0.061469
O5	O	0.251454	-0.248284	-0.061512
O6	O	0.179547	-0.248282	0.010401
O7	O	0.251483	-0.299358	-0.010443
Cu8	Cu	0.210181	-0.279153	-0.000021
Cu9	Cu	0.279262	-0.210078	-0.000022
O10	O	0.179576	-0.299355	0.061470
C11	C	0.057611	-0.088954	0.031601
C12	C	0.078540	-0.046688	0.031897
C13	C	-0.006002	-0.088956	0.031598
C14	C	0.015023	-0.046690	0.031895
C15	C	0.057592	-0.025359	0.031599
C16	C	0.015043	-0.110188	0.031897
C17	C	0.108001	-0.191963	0.020093
C18	C	0.131285	-0.212120	0.016839
C19	C	0.174807	-0.190388	0.015206
C20	C	0.200060	-0.212238	0.011670
C21	C	0.195042	-0.148499	0.016830
C22	C	0.171754	-0.128348	0.020090
C23	C	0.128232	-0.150082	0.021721
C24	C	0.172100	0.128001	0.020084
C25	C	0.195506	0.171431	0.016828
C26	C	0.175400	0.193218	0.015190
C27	C	0.200777	0.240308	0.011654
C28	C	0.131881	0.171570	0.016814
C29	C	0.108472	0.128140	0.020078
C30	C	0.128589	0.106358	0.021710
C31	C	-0.147860	-0.191972	0.020083
C32	C	-0.188037	-0.212129	0.016821
C33	C	-0.208202	-0.190400	0.015185
C34	C	-0.251763	-0.212253	0.011647
C35	C	-0.188187	-0.148513	0.016807
C36	C	-0.148010	-0.128357	0.020067
C37	C	-0.127852	-0.150093	0.021709
C38	C	0.102986	-0.128226	0.025251
C39	C	0.082861	-0.110806	0.028067
C40	C	-0.049563	-0.110811	0.028062
C41	C	-0.084287	-0.128232	0.025244
C42	C	0.082973	0.021731	0.028062
C43	C	0.103204	0.059266	0.025245
O44	O	-0.368180	-0.240963	0.061450
O45	O	-0.266056	-0.189895	-0.061532
O46	O	-0.266037	-0.189890	0.010380
O47	O	-0.368199	-0.240968	-0.010462
O48	O	-0.266018	-0.248299	0.010383
O49	O	-0.266037	-0.248303	-0.061529
O50	O	-0.368161	-0.299372	0.061453
Cu51	Cu	-0.317097	-0.279171	-0.000038
Cu52	Cu	-0.317120	-0.210096	-0.000041
O53	O	-0.368180	-0.299376	-0.010459
C54	C	0.057473	-0.025653	-0.406320
C55	C	0.078416	-0.046982	-0.427552
C56	C	-0.006103	-0.089247	-0.342725
C57	C	0.014937	-0.110479	-0.364054
C58	C	0.057494	-0.089246	-0.406319
C59	C	0.014916	-0.046983	-0.364055
C60	C	0.107772	0.127702	-0.445156
C61	C	0.131031	0.171131	-0.465174
C62	C	0.174542	0.192917	-0.507056
C63	C	0.199769	0.240008	-0.528760
C64	C	0.194792	0.171271	-0.528922
C65	C	0.171529	0.127844	-0.508906
C66	C	0.128017	0.106059	-0.467022
C67	C	0.172040	-0.128077	-0.509328
C68	C	0.195462	-0.148093	-0.529485
C69	C	0.175383	-0.189972	-0.507755
C70	C	0.200778	-0.211676	-0.529604
C71	C	0.131875	-0.211839	-0.465867
C72	C	0.108450	-0.191827	-0.445714
C73	C	0.128540	-0.149941	-0.467449
C74	C	-0.147937	-0.128080	-0.189367
C75	C	-0.188102	-0.148095	-0.145936
C76	C	-0.208240	-0.189976	-0.124148
C77	C	-0.251787	-0.211679	-0.077057
C78	C	-0.188210	-0.211840	-0.145793
C79	C	-0.148045	-0.191824	-0.189223
C80	C	-0.127915	-0.149944	-0.211008
C81	C	0.102799	0.058970	-0.445320
C82	C	0.082695	0.021436	-0.428022
C83	C	-0.049650	-0.110947	-0.295635
C84	C	-0.084364	-0.128245	-0.258099
C85	C	0.082893	-0.110946	-0.428171
C86	C	0.103138	-0.128243	-0.445591
C87	C	0.450063	-0.361020	-0.025313
C88	C	0.429035	-0.403285	-0.025611
C89	C	0.386450	-0.361017	-0.025310
C90	C	0.365518	-0.403282	-0.025608
C91	C	0.386465	-0.424613	-0.025313
C92	C	0.429020	-0.339785	-0.025608
C93	C	0.513641	-0.297284	-0.020153
C94	C	0.553823	-0.277130	-0.016897
C95	C	0.573983	-0.298862	-0.015265
C96	C	0.617550	-0.277013	-0.011732
C97	C	0.553968	-0.340748	-0.016892
C98	C	0.513790	-0.360901	-0.020150
C99	C	0.493626	-0.339169	-0.021779
C100	C	0.381487	-0.493348	-0.020155
C101	C	0.358216	-0.536779	-0.016898
C102	C	0.314695	-0.558560	-0.015263
C103	C	0.289460	-0.605651	-0.011730
C104	C	0.294443	-0.536913	-0.016888
C105	C	0.317714	-0.493483	-0.020146
C106	C	0.361234	-0.471703	-0.021778
C107	C	0.381440	-0.297277	-0.020147
C108	C	0.358150	-0.277121	-0.016882
C109	C	0.314630	-0.298850	-0.015247
C110	C	0.289378	-0.276997	-0.011711
C111	C	0.294392	-0.340735	-0.016872
C112	C	0.317678	-0.360892	-0.020135
C113	C	0.361202	-0.339162	-0.021772
O114	O	0.251559	0.378818	-0.010459
O115	O	0.179671	0.255836	0.010382
O116	O	0.251561	0.327744	-0.061529
O117	O	0.179669	0.306909	0.061453
O118	O	0.309988	0.327746	-0.061527
O119	O	0.238097	0.255837	0.010385
O120	O	0.309986	0.378819	-0.010456
Cu121	Cu	0.279377	0.317329	-0.000036
Cu122	Cu	0.210280	0.317327	-0.000038
O123	O	0.238096	0.306911	0.061455
O124	O	0.251625	-0.299371	-0.558300
O125	O	0.179693	-0.248298	-0.507237
O126	O	0.251624	-0.248295	-0.507232
O127	O	0.179694	-0.299373	-0.558305
O128	O	0.310018	-0.189888	-0.565644
O129	O	0.238088	-0.189891	-0.565649
O130	O	0.310019	-0.240963	-0.616712
Cu131	Cu	0.279385	-0.210094	-0.596514
Cu132	Cu	0.210327	-0.279168	-0.527435
O133	O	0.238089	-0.240966	-0.616717
O134	O	0.309544	0.378518	-0.616450
O135	O	0.237659	0.255536	-0.565383
O136	O	0.309567	0.327444	-0.565377
O137	O	0.237636	0.306611	-0.616457
O138	O	0.251154	0.327443	-0.506968
O139	O	0.179247	0.255535	-0.506974
O140	O	0.251131	0.378518	-0.558041
Cu141	Cu	0.209855	0.317026	-0.527174
Cu142	Cu	0.278935	0.317027	-0.596250
O143	O	0.179223	0.306610	-0.558048
C144	C	0.039545	-0.424608	0.321631
C145	C	0.060584	-0.403280	0.342864
C146	C	0.103122	-0.361012	0.258037
C147	C	0.124066	-0.339781	0.279367
C148	C	0.103142	-0.361016	0.321632
C149	C	0.060565	-0.403277	0.279366
C150	C	-0.024029	-0.493338	0.321464
C151	C	-0.064198	-0.536769	0.341482
C152	C	-0.084334	-0.558553	0.383360
C153	C	-0.127886	-0.605644	0.405066
C154	C	-0.064309	-0.536910	0.405229
C155	C	-0.024143	-0.493481	0.385213
C156	C	-0.004004	-0.471697	0.343331
C157	C	0.108159	-0.361185	0.385370
C158	C	0.131442	-0.341168	0.405526
C159	C	0.174951	-0.299290	0.383796
C160	C	0.200200	-0.277586	0.405648
C161	C	0.195180	-0.277421	0.341910
C162	C	0.171896	-0.297435	0.321756
C163	C	0.128387	-0.339317	0.343486
C164	C	0.108098	-0.361174	0.189304
C165	C	0.131365	-0.341157	0.145871
C166	C	0.174874	-0.299278	0.124089
C167	C	0.200102	-0.277570	0.076997
C168	C	0.195122	-0.277414	0.145733
C169	C	0.171859	-0.297430	0.189164
C170	C	0.128346	-0.339310	0.210948
C171	C	-0.613451	-0.361024	0.321615
C172	C	-0.634373	-0.403288	0.342848
C173	C	-0.549853	-0.361023	0.258021
C174	C	-0.570872	-0.403287	0.279350
C175	C	-0.613429	-0.424617	0.321616
C176	C	-0.570894	-0.339791	0.279350
C177	C	-0.618470	-0.297289	0.321449
C178	C	-0.641755	-0.277134	0.341467
C179	C	-0.685263	-0.298865	0.383346
C180	C	-0.710513	-0.277015	0.405052
C181	C	-0.705490	-0.340750	0.405214
C182	C	-0.682205	-0.360903	0.385198
C183	C	-0.638697	-0.339172	0.343315
C184	C	-0.682307	-0.493349	0.385354
C185	C	-0.705707	-0.536780	0.405510
C186	C	-0.685602	-0.558561	0.383780
C187	C	-0.710973	-0.605652	0.405631
C188	C	-0.642094	-0.536916	0.341893
C189	C	-0.618695	-0.493487	0.321739
C190	C	-0.638803	-0.471706	0.343469
C191	C	-0.486302	-0.297286	0.189287
C192	C	-0.446137	-0.277132	0.145854
C193	C	-0.425981	-0.298862	0.124071
C194	C	-0.382430	-0.277010	0.076980
C195	C	-0.445985	-0.340745	0.145715
C196	C	-0.486149	-0.360901	0.189147
C197	C	-0.506306	-0.339170	0.210931
C198	C	0.103231	0.292090	0.321612
C199	C	0.060665	0.291796	0.342842
C200	C	0.103210	0.292080	0.258018
C201	C	0.060644	0.291787	0.279345
C202	C	0.039620	0.292090	0.321608
C203	C	0.124159	0.291786	0.279348
C204	C	0.172147	0.297250	0.321449
C205	C	0.195572	0.300510	0.341468
C206	C	0.175484	0.302151	0.383345
C207	C	0.200883	0.305688	0.405052
C208	C	0.131967	0.300527	0.405211
C209	C	0.108542	0.297265	0.385194
C210	C	0.128634	0.295629	0.343313
C211	C	-0.023949	0.297260	0.385341
C212	C	-0.064128	0.300521	0.405495
C213	C	-0.084289	0.302152	0.383763
C214	C	-0.127852	0.305689	0.405611
C215	C	-0.064279	0.300519	0.341878
C216	C	-0.024104	0.297257	0.321727
C217	C	-0.003939	0.295629	0.343459
C218	C	0.172103	0.297231	0.189288
C219	C	0.195510	0.300487	0.145856
C220	C	0.175401	0.302119	0.124072
C221	C	0.200776	0.305646	0.076982
C222	C	0.131888	0.300497	0.145713
C223	C	0.108480	0.297242	0.189144
C224	C	0.128589	0.295609	0.210929
C225	C	0.431902	-0.088942	-0.406300
C226	C	0.474460	-0.046678	-0.427532
C227	C	0.431922	-0.088945	-0.342705
C228	C	0.474480	-0.046680	-0.364034
C229	C	0.495500	-0.025350	-0.406299
C230	C	0.410979	-0.110176	-0.364035
C231	C	0.317357	-0.191947	-0.445133
C232	C	0.293935	-0.212103	-0.465150
C233	C	0.314019	-0.190372	-0.507032
C234	C	0.288621	-0.212221	-0.528735
C235	C	0.357527	-0.148484	-0.528898
C236	C	0.380949	-0.128334	-0.508883
C237	C	0.360861	-0.150067	-0.466999
C238	C	0.637316	0.128008	-0.509308
C239	C	0.677485	0.171437	-0.529466
C240	C	0.697644	0.193223	-0.507737
C241	C	0.741193	0.240313	-0.529586
C242	C	0.677635	0.171575	-0.465849
C243	C	0.637473	0.128146	-0.445695
C244	C	0.617314	0.106365	-0.467430
C245	C	0.317439	-0.191958	-0.189348
C246	C	0.294034	-0.212115	-0.145916
C247	C	0.314138	-0.190386	-0.124130
C248	C	0.288762	-0.212238	-0.077039
C249	C	0.357643	-0.148500	-0.145775
C250	C	0.381044	-0.128345	-0.189204
C251	C	0.360940	-0.150080	-0.210989
C252	C	0.386259	-0.128212	-0.445298
C253	C	0.406504	-0.110793	-0.428000
C254	C	0.406546	-0.110799	-0.295615
C255	C	0.386319	-0.128220	-0.258080
C256	C	0.539048	0.021739	-0.428152
C257	C	0.573762	0.059274	-0.445572
O258	O	-0.244259	-0.744155	0.492757
O259	O	-0.142133	-0.621175	0.441687
O260	O	-0.142116	-0.693087	0.441684
O261	O	-0.244275	-0.672243	0.492760
O262	O	-0.142135	-0.693085	0.383274
O263	O	-0.142152	-0.621173	0.383278
O264	O	-0.244278	-0.744153	0.434347
Cu265	Cu	-0.193216	-0.682663	0.403479
Cu266	Cu	-0.193194	-0.682665	0.472555
O267	O	-0.244294	-0.672241	0.434350
C268	C	0.495372	0.348907	-0.406306
C269	C	0.474326	0.349200	-0.427539
C270	C	0.431781	0.348915	-0.342715
C271	C	0.410832	0.349208	-0.364045
C272	C	0.431759	0.348905	-0.406308
C273	C	0.474348	0.349210	-0.364042
C274	C	0.637247	0.337392	-0.445131
C275	C	0.677427	0.334134	-0.465145
C276	C	0.697571	0.332494	-0.507026
C277	C	0.741131	0.328954	-0.528727
C278	C	0.677535	0.334114	-0.528893
C279	C	0.637363	0.337377	-0.508881
C280	C	0.617219	0.339016	-0.466998
C281	C	0.381365	0.337373	-0.509319
C282	C	0.358080	0.334113	-0.529476
C283	C	0.314558	0.332479	-0.507749
C284	C	0.289304	0.328939	-0.529599
C285	C	0.294325	0.334110	-0.465863
C286	C	0.317614	0.337377	-0.445709
C287	C	0.361135	0.339006	-0.467441
C288	C	0.381475	0.337425	-0.189359
C289	C	0.358209	0.334170	-0.145929
C290	C	0.314687	0.332538	-0.124144
C291	C	0.289456	0.329008	-0.077054
C292	C	0.294432	0.334157	-0.145790
C293	C	0.317699	0.337410	-0.189219
C294	C	0.361224	0.339048	-0.211001
C295	C	0.573655	0.342550	-0.445300
C296	C	0.538932	0.345369	-0.428004
C297	C	0.406554	0.345386	-0.295626
C298	C	0.386447	0.342575	-0.258092
C299	C	0.406509	0.345365	-0.428162
C300	C	0.386382	0.342544	-0.445582
H301	H	0.072563	-0.209664	0.021422
H302	H	-0.625283	-0.243032	0.323659
F303	F	0.698774	0.194473	-0.574042
F304	F	0.379032	-0.125368	-0.122585
F305	F	-0.002492	0.295526	0.408473
H306	H	0.258951	-0.358429	-0.015537
F307	F	-0.008054	-0.155868	-0.341669
F308	F	0.366221	-0.155567	-0.341654
F309	F	0.575119	-0.232555	-0.015163
F310	F	0.123174	-0.024600	-0.472943
H311	H	-0.204609	-0.130820	0.015477
H312	H	0.497495	-0.395004	-0.021476
F313	F	0.296040	-0.215090	-0.212531
F314	F	0.109812	-0.364428	0.122839
H315	H	-0.002593	-0.029569	0.032375
H316	H	0.188348	-0.279626	0.206785
H317	H	-0.553327	-0.305076	0.262215
H318	H	-0.553260	-0.420409	0.262225
H319	H	-0.007843	-0.475858	0.403022
F320	F	-0.008100	-0.024601	-0.341673
F321	F	0.168823	-0.294391	0.256986
F322	F	0.248011	0.332380	-0.442741
H323	H	0.374556	0.332785	-0.563579
H324	H	0.491927	0.349678	-0.462267
F325	F	0.248110	0.332418	-0.122605
F326	F	-0.209414	-0.124823	-0.122902
H327	H	0.258606	-0.246216	-0.128294
F328	F	-0.007953	-0.155576	0.032516
F329	F	-0.752007	-0.559811	0.450087
H330	H	0.188399	-0.093975	-0.527028
F331	F	0.615864	0.104829	-0.532441
H332	H	-0.007636	-0.475603	0.287363
H333	H	0.115507	0.189308	0.015487
H334	H	0.374702	0.332850	-0.128307
F335	F	0.427763	-0.274147	-0.021891
F336	F	0.241096	0.194457	-0.573496
F337	F	-0.085421	0.302257	0.450070
F338	F	0.497366	0.349834	-0.341657
H339	H	0.301138	0.338706	-0.411606
F340	F	0.168931	0.291162	0.256967
F341	F	-0.572164	-0.274158	0.276874
F342	F	0.247632	-0.256679	-0.441877
H343	H	0.043033	0.291308	0.262217
H344	H	0.230554	-0.243313	0.127993
H345	H	0.230887	-0.130285	-0.563588
F346	F	-0.751798	-0.363877	0.449789
H347	H	0.416917	0.338761	-0.207093
F348	F	-0.679130	-0.425670	0.388239
F349	F	0.193529	0.295503	0.276877
H350	H	0.300997	-0.209648	-0.411031
F351	F	0.110501	-0.256412	-0.442741
H352	H	-0.698682	-0.475616	0.403051
F353	F	-0.126513	-0.083508	-0.212551
H354	H	-0.429850	-0.243028	0.128236
H355	H	0.331262	-0.420404	-0.026083
F356	F	0.241819	0.302212	0.122827
H357	H	0.497228	-0.279585	-0.021482
H358	H	0.416466	-0.094241	-0.206825
H359	H	0.570389	-0.358442	-0.015562
F360	F	0.110589	0.302273	0.449784
H361	H	0.188480	0.110269	0.021416
F362	F	0.109750	-0.256697	0.015109
H363	H	0.373877	-0.130795	-0.562999
H364	H	0.416925	-0.475615	-0.021486
F365	F	0.109480	0.194165	-0.441901
F366	F	-0.085743	0.302254	0.318751
F367	F	0.241358	-0.125375	0.015095
F368	F	0.296167	-0.470443	-0.021886
F369	F	0.062148	-0.215099	-0.401137
H370	H	0.492083	-0.029557	-0.346906
F371	F	0.193506	0.295492	0.212472
H372	H	0.376576	0.349684	-0.346919
F373	F	-0.620697	-0.560102	0.318768
H374	H	0.072343	0.109969	-0.411053
F375	F	-0.703729	-0.405478	0.408471
F376	F	-0.572388	-0.470449	0.277165
H377	H	-0.131740	-0.209629	-0.206843
H378	H	-0.502710	-0.279588	0.207023
H379	H	-0.502437	-0.395005	0.206768
F380	F	0.296141	0.339134	-0.212253
H381	H	-0.429572	-0.358440	0.127976
H382	H	-0.204611	-0.245945	-0.128052
F383	F	0.241883	0.302237	0.318196
F384	F	0.037663	0.291172	0.388232
H385	H	0.374633	-0.243018	-0.015560
F386	F	0.123305	-0.024307	0.032533
H387	H	0.073108	0.295940	0.402999
H388	H	0.620851	0.338727	-0.411030
H389	H	-0.080500	-0.554387	0.323674
H390	H	-0.007813	0.295927	0.287625
H391	H	0.042953	-0.420401	0.262243
F392	F	0.061851	-0.405758	0.408500
H393	H	0.188017	0.110222	-0.526712
F394	F	0.062169	0.295517	0.212175
H395	H	0.694054	0.189313	-0.448158
F396	F	0.698745	0.332407	-0.441872
F397	F	0.616183	0.105110	-0.401119
H398	H	0.115515	0.301828	0.127973
F399	F	-0.085744	-0.560099	0.449804
F400	F	0.061786	-0.405745	0.212487
F401	F	0.698976	0.332370	-0.573464
H402	H	0.446648	-0.420409	-0.026090
F403	F	0.037595	-0.425667	0.388251
F404	F	0.296138	-0.405470	-0.021864
H405	H	0.621054	0.338699	-0.526688
F406	F	0.427682	0.339107	-0.532448
H407	H	0.492051	-0.029554	-0.462259
F408	F	0.427252	-0.083758	-0.532156
F409	F	0.379774	-0.559812	-0.015171
H410	H	0.446619	-0.305059	-0.026083
H411	H	-0.204330	-0.246234	0.015498
H412	H	0.259001	-0.554655	-0.015552
H413	H	-0.131449	-0.209673	0.021418
H414	H	0.188231	-0.094244	0.021414
H415	H	0.073039	0.110517	0.021402
F416	F	0.241819	0.194467	0.015098
H417	H	-0.131717	-0.094253	0.021391
F418	F	0.241488	-0.232846	0.318785
F419	F	0.109909	-0.364445	0.450103
H420	H	0.188364	-0.279626	0.287654
