data_functionalizedCrystal
_audit_creation_method	'MofGen! by Chris Wilmer'
_symmetry_space_group_name_H-M	'P1'
_symmetry_Int_Tables_number	1
_symmetry_cell_setting	triclinic
loop_
_symmetry_equiv_pos_as_xyz
  x,y,z
_cell_length_a	17.699077
_cell_length_b	19.188930
_cell_length_c	16.176319
_cell_angle_alpha	90.008567
_cell_angle_beta	90.005422
_cell_angle_gamma	83.212679
loop_
_atom_site_label
_atom_site_type_symbol
_atom_site_fract_x
_atom_site_fract_y
_atom_site_fract_z
O1	O	1.003964	0.088271	0.068745
O2	O	0.783570	0.099763	0.068750
O3	O	0.900127	-0.007631	0.068731
O4	O	0.887407	0.195666	0.068764
O5	O	0.900114	-0.007632	-0.068762
O6	O	0.783556	0.099763	-0.068743
O7	O	1.003951	0.088271	-0.068748
Cu8	Cu	0.893752	0.094017	-0.081300
Cu9	Cu	0.893768	0.094017	0.081302
O10	O	0.887393	0.195666	-0.068729
C11	C	0.755367	0.099352	0.000004
C12	C	0.671350	0.098119	0.000005
C13	C	0.631876	0.097537	-0.074943
C14	C	0.552935	0.096368	-0.074944
C15	C	0.513469	0.095784	0.000004
C16	C	0.552949	0.096363	0.074958
C17	C	0.631889	0.097528	0.074959
C18	C	0.234592	0.091665	0.074959
C19	C	0.155645	0.090502	0.074953
C20	C	0.155638	0.090504	-0.074944
C21	C	0.234578	0.091669	-0.074943
C22	C	0.274051	0.092244	0.000010
C23	C	0.359648	0.093512	0.000011
C24	C	0.427872	0.094522	0.000005
C25	C	0.899708	-0.033643	-0.000018
C26	C	0.898472	-0.111149	-0.000025
C27	C	0.966864	-0.155998	-0.000030
C28	C	0.965702	-0.228823	-0.000017
C29	C	0.896145	-0.256796	-0.000015
C30	C	0.827744	-0.211937	-0.000005
C31	C	0.828907	-0.139114	-0.000010
N32	N	0.842972	-0.364859	-0.046805
N33	N	0.841871	-0.434039	-0.046802
C34	C	0.892634	-0.476208	0.000002
N35	N	0.944552	-0.446586	0.046793
N36	N	0.945655	-0.377400	0.046786
C37	C	0.894875	-0.335760	-0.000009
C38	C	0.959771	-0.600023	0.000012
C39	C	0.958607	-0.672849	0.000030
C40	C	0.820646	-0.655962	0.000035
C41	C	0.821813	-0.583137	0.000024
C42	C	0.891378	-0.555173	0.000009
C43	C	1.032154	0.088682	-0.000000
C44	C	1.116171	0.089915	0.000004
C45	C	0.887812	0.221677	0.000021
C46	C	0.889049	0.299183	0.000034
N47	N	0.893746	0.094016	-0.195665
C48	C	0.939506	0.136310	-0.238920
C49	C	0.939514	0.136308	-0.325467
C50	C	0.893758	0.094014	-0.368758
C51	C	0.847997	0.051715	-0.325497
C52	C	0.847993	0.051715	-0.238952
C53	C	0.848011	0.051716	-0.674525
C54	C	0.848016	0.051722	-0.761077
C55	C	0.939531	0.136309	-0.761040
C56	C	0.939528	0.136308	-0.674495
C57	C	0.893770	0.094007	-0.631242
C58	C	0.893763	0.094009	-0.537398
C59	C	0.893761	0.094015	-0.462600
N60	N	0.893780	0.094012	0.195667
H61	H	0.123489	0.090032	-0.135975
H62	H	0.520800	0.095883	-0.135975
H63	H	0.773213	-0.102597	-0.000005
Cl64	Cl	0.790457	-0.001435	-0.620161
H65	H	0.810755	0.017279	-0.796322
Cl66	Cl	0.997030	0.189483	-0.184505
H67	H	0.664028	0.098003	0.135989
Cl68	Cl	0.503338	0.095604	0.169180
Cl69	Cl	0.790476	-0.001455	-0.379920
H70	H	1.021397	-0.265345	-0.000018
H71	H	0.976777	0.170746	-0.360681
H72	H	0.976792	0.170751	-0.796268
Cl73	Cl	0.284188	0.092407	-0.169168
H74	H	0.810731	0.017275	-0.203735
H75	H	0.771109	-0.234718	-0.000001
Cl76	Cl	1.054316	-0.120845	-0.000026
Cl77	Cl	0.106032	0.089767	0.169181
Cl78	Cl	0.997042	0.189488	-0.620077
H79	H	1.016415	-0.577253	0.000003
H80	H	1.014302	-0.709365	0.000030
Cl81	Cl	0.284205	0.092389	0.169187
H82	H	0.766121	-0.546620	0.000024
Cl83	Cl	0.681482	0.098276	-0.169170
Cl84	Cl	0.733202	-0.691121	0.000042
