data_functionalizedCrystal
_audit_creation_method	'MofGen! by Chris Wilmer'
_symmetry_space_group_name_H-M	'P1'
_symmetry_Int_Tables_number	1
_symmetry_cell_setting	triclinic
loop_
_symmetry_equiv_pos_as_xyz
  x,y,z
_cell_length_a	11.169417
_cell_length_b	16.625546
_cell_length_c	11.169409
_cell_angle_alpha	89.961635
_cell_angle_beta	89.979747
_cell_angle_gamma	90.023717
loop_
_atom_site_label
_atom_site_type_symbol
_atom_site_fract_x
_atom_site_fract_y
_atom_site_fract_z
Zn1	Zn	1.834870	-0.320910	-0.678482
Zn2	Zn	1.834714	-0.455772	-0.477778
Zn3	Zn	1.634153	-0.320960	-0.477817
Zn4	Zn	1.634121	-0.455707	-0.678424
O5	O	1.734465	-0.388337	-0.578125
O6	O	2.002799	-0.338806	-0.651866
O7	O	1.808058	-0.437937	-0.309833
O8	O	1.660857	-0.208121	-0.504477
O9	O	2.002685	-0.437888	-0.504409
O10	O	1.808323	-0.208084	-0.651905
O11	O	1.660706	-0.338891	-0.309862
O12	O	1.466199	-0.338828	-0.504421
O13	O	1.660802	-0.437778	-0.846381
O14	O	1.466175	-0.437826	-0.651805
O15	O	1.808292	-0.338743	-0.846424
O16	O	1.808026	-0.568596	-0.504353
O17	O	1.660651	-0.568548	-0.651766
C18	C	1.422640	-0.388326	-0.578111
C19	C	1.289240	-0.388341	-0.578134
C20	C	1.734351	-0.597828	-0.578075
C21	C	1.734412	-0.687449	-0.578094
C22	C	1.734622	-1.015625	-0.578219
C23	C	1.734559	-0.924316	-0.578187
C24	C	1.734516	-0.851540	-0.578155
C25	C	1.734456	-0.760226	-0.578125
C26	C	2.047507	-0.388349	-0.578140
C27	C	2.180907	-0.388354	-0.578146
C28	C	1.734561	-0.388248	-0.891168
C29	C	1.734602	-0.388210	-1.024568
C30	C	1.734611	-0.178028	-0.578202
C31	C	1.734674	-0.088407	-0.578235
C32	C	1.734438	-0.388368	-0.266300
C33	C	1.734629	-0.388179	-0.132901
