data_functionalizedCrystal
_audit_creation_method	'MofGen! by Chris Wilmer'
_symmetry_space_group_name_H-M	'P1'
_symmetry_Int_Tables_number	1
_symmetry_cell_setting	triclinic
loop_
_symmetry_equiv_pos_as_xyz
  x,y,z
_cell_length_a	15.995350
_cell_length_b	8.559649
_cell_length_c	7.681481
_cell_angle_alpha	85.069100
_cell_angle_beta	84.272804
_cell_angle_gamma	103.364480
loop_
_atom_site_label
_atom_site_type_symbol
_atom_site_fract_x
_atom_site_fract_y
_atom_site_fract_z
O1	O	1.088861	-0.221071	0.146274
O2	O	0.843449	-0.246508	0.146310
O3	O	0.987776	-0.001187	0.146287
O4	O	0.944534	-0.466392	0.146297
O5	O	1.005545	0.029076	-0.146574
O6	O	0.861217	-0.216245	-0.146551
O7	O	1.106630	-0.190808	-0.146586
Zn8	Zn	0.986745	-0.198722	-0.193067
Zn9	Zn	0.963334	-0.238595	0.192790
O10	O	0.962303	-0.436129	-0.146564
C11	C	0.821206	-0.230326	-0.000116
C12	C	0.728457	-0.227175	-0.000102
N13	N	1.002729	-0.171508	-0.456403
C14	C	0.999937	0.073474	-0.000140
C15	C	1.009691	0.250853	-0.000132
C16	C	0.391440	-0.215850	-0.000139
C17	C	0.450148	-0.041071	-0.000796
C18	C	0.546595	-0.044294	-0.000124
C19	C	0.558638	-0.221468	-0.000122
C20	C	0.501863	-0.324922	0.167111
C21	C	0.405502	-0.320547	0.167238
C22	C	0.425137	-0.289741	-0.165799
C23	C	0.522219	-0.289473	-0.167997
C24	C	0.653130	-0.224652	-0.000106
C25	C	0.296946	-0.212672	-0.000143
C26	C	1.128873	-0.206991	-0.000157
C27	C	1.221621	-0.210143	-0.000159
C28	C	0.950141	-0.510791	-0.000132
C29	C	0.940387	-0.688171	-0.000129
N30	N	0.947358	-0.265795	0.456127
H31	H	0.586653	0.035831	-0.120004
F32	F	0.873478	-0.391589	-0.445575
F33	F	0.579156	0.028235	0.157086
F34	F	0.441315	0.066409	-0.157554
F35	F	0.420920	0.033692	0.155081
H36	H	0.526535	-0.277931	0.291567
H37	H	0.383650	-0.270623	0.292247
H38	H	1.059259	-0.075275	-0.531618
H39	H	0.364545	-0.449601	0.174829
H40	H	0.507241	-0.455730	0.173330
F41	F	0.572947	-0.190411	-0.329705
F42	F	0.532238	-0.456989	-0.181197
F43	F	0.413154	-0.197960	-0.331483
H44	H	1.076494	0.334361	-0.000156
H45	H	0.385161	-0.418438	-0.166928
F46	F	0.853075	0.202694	-0.000121
