data_functionalizedCrystal
_audit_creation_method	'MofGen! by Chris Wilmer'
_symmetry_space_group_name_H-M	'P1'
_symmetry_Int_Tables_number	1
_symmetry_cell_setting	triclinic
loop_
_symmetry_equiv_pos_as_xyz
  x,y,z
_cell_length_a	12.759401
_cell_length_b	11.169416
_cell_length_c	12.759393
_cell_angle_alpha	90.027570
_cell_angle_beta	90.020938
_cell_angle_gamma	90.011865
loop_
_atom_site_label
_atom_site_type_symbol
_atom_site_fract_x
_atom_site_fract_y
_atom_site_fract_z
Zn1	Zn	1.606298	-0.477700	0.594041
Zn2	Zn	1.606203	-0.678429	0.418371
Zn3	Zn	1.430597	-0.477764	0.418377
Zn4	Zn	1.430602	-0.678345	0.594008
O5	O	1.518425	-0.578060	0.506199
O6	O	1.753307	-0.504336	0.570750
O7	O	1.582866	-0.651872	0.271350
O8	O	1.453942	-0.309806	0.441696
O9	O	1.753236	-0.651810	0.441685
O10	O	1.583029	-0.309759	0.570756
O11	O	1.453849	-0.504445	0.271355
O12	O	1.283577	-0.504363	0.441663
O13	O	1.453951	-0.651667	0.741033
O14	O	1.283580	-0.651729	0.570698
O15	O	1.583034	-0.504254	0.741058
O16	O	1.582871	-0.846368	0.441653
O17	O	1.453858	-0.846306	0.570692
C18	C	1.245458	-0.578045	0.506178
C19	C	1.128681	-0.578068	0.506194
C20	C	1.073849	-0.654918	0.573277
C21	C	0.964125	-0.654923	0.573298
C22	C	0.964075	-0.501223	0.439144
C23	C	1.073797	-0.501213	0.439129
C24	C	1.518383	-0.889884	0.506191
C25	C	1.518462	-1.023284	0.506223
C26	C	1.792458	-0.578075	0.506221
C27	C	1.909235	-0.578082	0.506230
C28	C	1.518504	-0.577944	0.780233
C29	C	1.518537	-0.577895	0.897009
C30	C	1.518495	-0.265017	0.506230
C31	C	1.518525	-0.131617	0.506243
C32	C	1.518407	-0.578088	0.233232
C33	C	1.518577	-0.577799	0.116456
C34	C	1.585756	-0.501125	0.951886
C35	C	1.585773	-0.501073	1.061610
C36	C	1.451351	-0.654573	1.061571
C37	C	1.451329	-0.654617	0.951849
H38	H	0.919375	-0.438653	0.384540
O39	O	1.651065	-0.426480	0.898776
C40	C	1.710414	-0.358730	0.970746
H41	H	1.667397	-0.354542	1.048953
H42	H	1.790200	-0.402679	0.982424
C43	C	1.778411	-0.236156	0.831888
C44	C	1.725572	-0.231004	0.927940
H45	H	1.787766	-0.157370	0.805482
H46	H	1.738430	-0.281802	0.783399
H47	H	1.844894	-0.272785	0.841633
H48	H	1.659086	-0.194389	0.918191
H49	H	1.765542	-0.185348	0.976426
O50	O	1.385918	-0.729027	0.898489
C51	C	1.318084	-0.660715	0.834999
H52	H	1.311624	-0.566177	0.868077
H53	H	1.350555	-0.656614	0.751849
C54	C	1.216785	-0.835454	0.792656
C55	C	1.208843	-0.719343	0.833289
H56	H	1.149401	-0.871620	0.791596
H57	H	1.262488	-0.881479	0.835427
H58	H	1.243848	-0.832020	0.723368
H59	H	1.181794	-0.722780	0.902579
H60	H	1.163133	-0.673320	0.790529
O61	O	0.910745	-0.729637	0.638314
C62	C	0.847254	-0.807093	0.578393
H63	H	0.830778	-0.764653	0.498840
H64	H	0.889522	-0.896015	0.566708
C65	C	0.763295	-0.881039	0.733894
C66	C	0.743051	-0.828908	0.636189
H67	H	0.699019	-0.894502	0.769545
H68	H	0.806072	-0.828859	0.774265
H69	H	0.798521	-0.955135	0.724142
H70	H	0.707838	-0.754808	0.645942
H71	H	0.700265	-0.881077	0.595820
H72	H	1.640508	-0.438557	1.106286
O73	O	1.126906	-0.426519	0.373860
C74	C	1.054938	-0.358674	0.314682
H75	H	0.976716	-0.407832	0.310977
H76	H	1.043299	-0.267577	0.353293
C77	C	1.193788	-0.280841	0.207438
C78	C	1.097716	-0.341222	0.202880
H79	H	1.220176	-0.270070	0.138474
H80	H	1.242275	-0.326545	0.247310
H81	H	1.184075	-0.204933	0.239618
H82	H	1.107432	-0.417134	0.170712
H83	H	1.049232	-0.295530	0.163000
O84	O	1.386173	-0.729063	1.115007
C85	C	1.400587	-0.712544	1.223619
H86	H	1.481680	-0.673240	1.238623
H87	H	1.338292	-0.648613	1.254754
C88	C	1.291340	-0.882230	1.261509
C89	C	1.390943	-0.833965	1.279937
H90	H	1.285387	-0.957126	1.296250
H91	H	1.281625	-0.893357	1.188335
H92	H	1.239438	-0.828943	1.287454
H93	H	1.442842	-0.887245	1.253979
H94	H	1.400667	-0.822849	1.353107
H95	H	1.118532	-0.717495	0.627889
