data_functionalizedCrystal
_audit_creation_method	'MofGen! by Chris Wilmer'
_symmetry_space_group_name_H-M	'P1'
_symmetry_Int_Tables_number	1
_symmetry_cell_setting	triclinic
loop_
_symmetry_equiv_pos_as_xyz
  x,y,z
_cell_length_a	29.839134
_cell_length_b	16.625546
_cell_length_c	29.839125
_cell_angle_alpha	90.016010
_cell_angle_beta	89.978020
_cell_angle_gamma	89.982671
loop_
_atom_site_label
_atom_site_type_symbol
_atom_site_fract_x
_atom_site_fract_y
_atom_site_fract_z
Zn1	Zn	0.686779	0.321225	-0.254130
Zn2	Zn	0.686736	0.456034	-0.179003
Zn3	Zn	0.611662	0.321207	-0.179000
Zn4	Zn	0.611634	0.456007	-0.254091
O5	O	0.649203	0.388619	-0.216556
O6	O	0.749640	0.339127	-0.244182
O7	O	0.676771	0.438153	-0.116135
O8	O	0.621656	0.208377	-0.188982
O9	O	0.749609	0.438170	-0.188986
O10	O	0.676844	0.208390	-0.244180
O11	O	0.621614	0.339096	-0.116133
O12	O	0.548791	0.339070	-0.188943
O13	O	0.621609	0.438124	-0.316963
O14	O	0.548771	0.438107	-0.244112
O15	O	0.676817	0.339100	-0.316992
O16	O	0.676744	0.568863	-0.188948
O17	O	0.621567	0.568843	-0.244115
C18	C	0.649160	0.598109	-0.216537
C19	C	0.649183	0.687731	-0.216544
C20	C	0.532480	0.388584	-0.216524
C21	C	0.482546	0.388589	-0.216520
C22	C	0.649215	0.388611	-0.333734
C23	C	0.649220	0.388608	-0.383669
C24	C	0.172901	0.440263	-0.245247
C25	C	-0.014772	0.440286	-0.245267
O26	O	-0.039038	0.484183	-0.269673
N27	N	-0.038239	0.388648	-0.216590
C28	C	-0.014786	0.336997	-0.187907
O29	O	-0.039053	0.293071	-0.163519
C30	C	0.172886	0.336971	-0.187890
C31	C	0.196351	0.388618	-0.216566
C32	C	0.196366	0.491906	-0.273921
C33	C	0.243282	0.491903	-0.273914
C34	C	0.266732	0.440257	-0.245233
C35	C	0.243267	0.388615	-0.216559
C36	C	0.196339	0.285316	-0.159210
C37	C	0.243260	0.285313	-0.159209
C38	C	0.266725	0.336960	-0.187885
C39	C	0.313633	0.336967	-0.187871
N40	N	0.337100	0.388604	-0.216548
C41	C	0.313650	0.440250	-0.245230
C42	C	-0.113317	0.337016	-0.187918
C43	C	-0.160234	0.337023	-0.187922
C44	C	-0.160217	0.440311	-0.245282
C45	C	-0.113298	0.440307	-0.245276
C46	C	-0.089849	0.388654	-0.216595
C47	C	0.412176	0.440240	-0.245212
C48	C	0.459095	0.440235	-0.245201
C49	C	0.459074	0.336944	-0.187843
C50	C	0.412158	0.336952	-0.187852
C51	C	0.388711	0.388602	-0.216540
O52	O	0.337927	0.293086	-0.163482
O53	O	0.337925	0.484157	-0.269621
C54	C	0.125986	0.440267	-0.245254
C55	C	0.102521	0.388624	-0.216580
C56	C	0.125971	0.336979	-0.187899
C57	C	0.055603	0.388632	-0.216584
C58	C	0.032152	0.440277	-0.245265
C59	C	0.055620	0.491915	-0.273942
C60	C	0.102536	0.491912	-0.273935
C61	C	0.102503	0.285341	-0.159221
C62	C	0.055588	0.285349	-0.159230
C63	C	0.032137	0.336994	-0.187912
C64	C	0.766381	0.388654	-0.216589
C65	C	0.816315	0.388668	-0.216603
C66	C	0.649258	0.178310	-0.216585
C67	C	0.649281	0.088689	-0.216597
C68	C	0.649261	1.015906	-0.216591
C69	C	0.649238	0.924598	-0.216579
C70	C	0.649222	0.851821	-0.216567
C71	C	0.649199	0.760507	-0.216556
C72	C	0.677997	0.336912	-0.693330
C73	C	0.678019	0.336843	-0.881004
O74	O	0.702453	0.292965	-0.905284
N75	N	0.649279	0.388392	-0.904454
C76	C	0.620530	0.439959	-0.880983
O77	O	0.596082	0.483798	-0.905236
C78	C	0.620506	0.440023	-0.693311
C79	C	0.649251	0.388476	-0.669863
C80	C	0.706740	0.285368	-0.669882
C81	C	0.706735	0.285389	-0.622967
C82	C	0.677989	0.336953	-0.599499
C83	C	0.649247	0.388497	-0.622948
C84	C	0.591754	0.491585	-0.669841
C85	C	0.591750	0.491595	-0.622920
C86	C	0.620495	0.440048	-0.599472
C87	C	0.620496	0.440082	-0.552565
N88	N	0.649236	0.388532	-0.529114
C89	C	0.677982	0.336968	-0.552582
C90	C	0.620545	0.439923	-0.979514
C91	C	0.620552	0.439908	-1.026432
C92	C	0.678041	0.336790	-1.026449
C93	C	0.678036	0.336810	-0.979530
C94	C	0.649285	0.388373	-0.956064
C95	C	0.677972	0.337016	-0.454056
C96	C	0.677966	0.337044	-0.407136
C97	C	0.620476	0.440158	-0.407123
C98	C	0.620483	0.440134	-0.454039
C99	C	0.649232	0.388556	-0.477504
O100	O	0.596071	0.483931	-0.528256
O101	O	0.702420	0.293123	-0.528321
C102	C	0.678001	0.336891	-0.740246
C103	C	0.649259	0.388434	-0.763694
C104	C	0.620512	0.439999	-0.740227
C105	C	0.649265	0.388419	-0.810612
C106	C	0.678012	0.336855	-0.834079
C107	C	0.706752	0.285305	-0.810629
C108	C	0.706748	0.285326	-0.763713
C109	C	0.591772	0.491548	-0.763677
C110	C	0.591779	0.491524	-0.810593
C111	C	0.620526	0.439960	-0.834060
C112	C	0.649216	0.388568	-0.099833
C113	C	0.649298	0.388344	-0.049899
H114	H	0.478199	0.482295	-0.268553
Br115	Br	0.380361	0.510337	-0.284147
H116	H	0.478176	0.294898	-0.164490
H117	H	0.177242	0.243262	-0.135858
H118	H	0.730142	0.243412	-0.603879
Br119	Br	0.275120	0.561995	-0.312836
H120	H	0.177278	0.533962	-0.297279
H121	H	0.597133	0.481917	-0.960412
Br122	Br	0.716986	0.267012	-0.485894
Br123	Br	-0.081458	0.510402	-0.284195
H124	H	-0.179336	0.294975	-0.164566
Br125	Br	0.552754	0.561534	-0.731836
H126	H	0.568332	0.533577	-0.603816
H127	H	0.121637	0.533968	-0.297287
H128	H	0.730149	0.243373	-0.688984
Br129	Br	0.552768	0.561495	-0.842409
H130	H	0.036519	0.533969	-0.297294
H131	H	0.036486	0.243293	-0.135875
H132	H	-0.179318	0.482363	-0.268636
Br133	Br	0.581475	0.510097	-0.485862
H134	H	0.121591	0.243284	-0.135865
Br135	Br	0.716982	0.267085	-0.375316
H136	H	0.597072	0.482143	-0.388008
H137	H	0.701442	0.294834	-0.960442
H138	H	0.262350	0.243245	-0.135856
Br139	Br	0.717054	0.266810	-1.058306
H140	H	0.597149	0.481892	-1.045520
Br141	Br	0.745761	0.215366	-0.731898
Br142	Br	0.745767	0.215330	-0.842486
H143	H	-0.094228	0.294952	-0.164561
H144	H	0.393052	0.294898	-0.164500
H145	H	0.568347	0.533560	-0.688925
