data_functionalizedCrystal
_audit_creation_method	'MofGen! by Chris Wilmer'
_symmetry_space_group_name_H-M	'P1'
_symmetry_Int_Tables_number	1
_symmetry_cell_setting	triclinic
loop_
_symmetry_equiv_pos_as_xyz
  x,y,z
_cell_length_a	16.109301
_cell_length_b	15.995350
_cell_length_c	14.586319
_cell_angle_alpha	89.998440
_cell_angle_beta	89.999213
_cell_angle_gamma	83.476928
loop_
_atom_site_label
_atom_site_type_symbol
_atom_site_fract_x
_atom_site_fract_y
_atom_site_fract_z
O1	O	1.103160	0.107624	-0.076178
O2	O	0.861101	0.121018	-0.076192
O3	O	0.988747	-0.007569	-0.076184
O4	O	0.975514	0.236210	-0.076186
O5	O	0.988739	-0.007570	0.076297
O6	O	0.861093	0.121016	0.076289
O7	O	1.103151	0.107622	0.076303
Cu8	Cu	0.982121	0.114319	0.090219
Cu9	Cu	0.982131	0.114321	-0.090107
O10	O	0.975505	0.236208	0.076295
C11	C	0.830122	0.120474	0.000047
C12	C	0.737826	0.118848	0.000041
C13	C	0.515573	0.191366	0.000051
C14	C	0.428853	0.189831	0.000057
C15	C	0.448686	0.037268	0.000055
C16	C	0.535405	0.038804	0.000055
C17	C	0.568846	0.115855	0.000049
C18	C	0.395406	0.112785	0.000054
C19	C	0.301380	0.111120	0.000061
C20	C	0.662879	0.117520	0.000044
C21	C	0.988196	-0.038764	0.000055
C22	C	0.986556	-0.131714	0.000050
C23	C	0.980665	-0.469460	0.000053
C24	C	0.889758	-0.422001	-0.000295
C25	C	0.891399	-0.325311	0.000049
C26	C	0.983587	-0.301900	0.000051
C27	C	1.028421	-0.342991	0.087126
C28	C	1.026137	-0.439626	0.087198
C29	C	1.028025	-0.439983	-0.086201
C30	C	1.028003	-0.343037	-0.087351
C31	C	0.985243	-0.207203	0.000053
C32	C	0.979012	-0.564157	0.000057
C33	C	1.134130	0.108166	0.000062
C34	C	1.226426	0.109792	0.000062
C35	C	0.976056	0.267404	0.000054
C36	C	0.977697	0.360354	0.000053
N37	N	0.982120	0.114317	0.217050
N38	N	0.982139	0.114317	-0.216939
C39	C	1.038660	0.057398	0.452061
C40	C	1.038662	0.057396	0.548042
C41	C	0.925593	0.171238	0.548044
C42	C	0.925587	0.171236	0.452064
C43	C	0.982125	0.114316	0.404075
C44	C	0.982134	0.114317	0.596036
C45	C	0.982136	0.114315	0.700103
C46	C	0.982122	0.114317	0.300001
H47	H	0.578782	-0.022690	0.000056
H48	H	1.095050	-0.471762	-0.086785
H49	H	0.421447	-0.025465	0.000066
H50	H	1.095231	-0.327694	-0.092608
H51	H	0.993437	-0.457919	0.152287
H52	H	0.879546	0.217586	0.412992
C53	C	0.552043	0.274934	0.000004
C54	C	0.639391	0.260121	-0.000023
C55	C	0.673012	0.337086	-0.000077
H56	H	0.533849	0.306087	0.053164
H57	H	0.533802	0.306034	-0.053190
H58	H	0.657625	0.229035	0.053166
H59	H	0.657608	0.228982	-0.053179
H60	H	0.654771	0.368186	-0.053271
H61	H	0.654812	0.368233	0.053083
H62	H	0.732281	0.327046	-0.000104
C63	C	0.841325	-0.446536	-0.083636
C64	C	0.816817	-0.374795	-0.136324
C65	C	0.772210	-0.397371	-0.213115
H66	H	0.793206	-0.470927	-0.064185
H67	H	0.875821	-0.486118	-0.119449
H68	H	0.782322	-0.335227	-0.100517
H69	H	0.864919	-0.350395	-0.155799
H70	H	0.806706	-0.436953	-0.248928
H71	H	0.724095	-0.421763	-0.193655
H72	H	0.755582	-0.348701	-0.248878
C73	C	0.841576	-0.448280	0.082464
C74	C	0.837210	-0.535155	0.079239
C75	C	0.792846	-0.559396	0.155468
H76	H	0.786693	-0.419408	0.081818
H77	H	0.869340	-0.434676	0.137014
H78	H	0.809446	-0.548750	0.024703
H79	H	0.892081	-0.564047	0.079898
H80	H	0.820609	-0.545793	0.210018
H81	H	0.737965	-0.530519	0.154815
H82	H	0.789884	-0.618343	0.153295
C83	C	1.100073	-0.004498	0.400123
C84	C	1.149568	-0.054361	0.462695
C85	C	1.206143	-0.111399	0.414886
H86	H	1.134759	0.025530	0.362672
H87	H	1.070185	-0.039408	0.362706
H88	H	1.179454	-0.019455	0.500095
H89	H	1.114905	-0.084407	0.500147
H90	H	1.176254	-0.146309	0.377470
H91	H	1.240823	-0.081363	0.377437
H92	H	1.239726	-0.145242	0.457334
C93	C	0.984295	-0.306777	-0.173281
C94	C	0.954270	-0.371631	-0.223484
C95	C	0.913993	-0.338252	-0.302640
H96	H	1.022704	-0.280430	-0.209727
H97	H	0.938918	-0.266496	-0.156470
H98	H	0.999641	-0.411897	-0.240296
H99	H	0.915850	-0.397984	-0.187065
H100	H	0.868616	-0.297972	-0.285829
H101	H	0.952407	-0.311906	-0.339078
H102	H	0.893609	-0.382249	-0.336708
H103	H	1.084697	0.011047	0.587109
C104	C	1.115184	-0.482500	0.092531
C105	C	1.170802	-0.421359	0.095671
C106	C	1.252835	-0.460818	0.100601
H107	H	1.126770	-0.517015	0.040048
H108	H	1.121520	-0.516217	0.146245
H109	H	1.164469	-0.387656	0.041962
H110	H	1.159242	-0.386841	0.148152
H111	H	1.259171	-0.494535	0.154315
H112	H	1.264413	-0.495332	0.048116
H113	H	1.290581	-0.419340	0.102740
C114	C	0.371055	0.271843	-0.000134
C115	C	0.386152	0.318226	-0.078596
C116	C	0.332918	0.393778	-0.078809
H117	H	0.381146	0.303537	0.052975
H118	H	0.314605	0.259933	-0.000181
H119	H	0.442589	0.330138	-0.078541
H120	H	0.376056	0.286558	-0.131718
H121	H	0.276468	0.381867	-0.078855
H122	H	0.343013	0.425464	-0.025696
H123	H	0.343149	0.425254	-0.132048
H124	H	0.856156	-0.296879	-0.062370
H125	H	0.855912	-0.297438	0.062570
C126	C	0.986889	-0.305314	0.173606
C127	C	0.956338	-0.369023	0.225174
C128	C	0.918079	-0.334350	0.304848
H129	H	0.941966	-0.264288	0.157404
H130	H	1.026592	-0.279615	0.208885
H131	H	0.916638	-0.394708	0.189902
H132	H	1.001244	-0.410053	0.241400
H133	H	0.957782	-0.308651	0.340127
H134	H	0.873159	-0.293324	0.288637
H135	H	0.897352	-0.377572	0.339851
H136	H	0.998307	-0.460513	-0.152198
H137	H	1.096149	-0.328884	0.090365
C138	C	0.864311	0.233003	0.600315
C139	C	0.876431	0.220841	0.694641
C140	C	0.820001	0.277734	0.742818
H141	H	0.808787	0.223951	0.584704
H142	H	0.873347	0.288904	0.584631
H143	H	0.867388	0.164953	0.710318
H144	H	0.931943	0.229900	0.710279
H145	H	0.829037	0.333635	0.727134
H146	H	0.764481	0.268677	0.727200
H147	H	0.828222	0.269495	0.806823
