data_functionalizedCrystal
_audit_creation_method	'MofGen! by Chris Wilmer'
_symmetry_space_group_name_H-M	'P1'
_symmetry_Int_Tables_number	1
_symmetry_cell_setting	triclinic
loop_
_symmetry_equiv_pos_as_xyz
  x,y,z
_cell_length_a	14.853577
_cell_length_b	10.723024
_cell_length_c	9.798715
_cell_angle_alpha	90.001978
_cell_angle_beta	89.996515
_cell_angle_gamma	95.946576
loop_
_atom_site_label
_atom_site_type_symbol
_atom_site_fract_x
_atom_site_fract_y
_atom_site_fract_z
O1	O	1.197219	-0.162973	-0.113481
O2	O	0.934863	-0.182367	-0.113485
O3	O	1.072093	0.008967	-0.113478
O4	O	1.059989	-0.354307	-0.113488
O5	O	1.072082	0.008968	0.113504
O6	O	0.934853	-0.182366	0.113497
O7	O	1.197209	-0.162972	0.113501
Zn8	Zn	1.066029	-0.172669	0.149538
Zn9	Zn	1.066043	-0.172670	-0.149521
O10	O	1.059979	-0.354306	0.113494
C11	C	0.901265	-0.181486	0.000006
C12	C	0.801167	-0.178846	0.000004
C13	C	1.071207	0.055458	0.000012
C14	C	1.068571	0.193986	0.000007
C15	C	1.230807	-0.163853	0.000008
C16	C	1.330904	-0.166493	0.000000
C17	C	1.754148	-0.177610	-0.123729
C18	C	1.754131	-0.177609	0.123736
C19	C	1.660084	-0.175141	0.123737
C20	C	1.613064	-0.173906	0.000003
C21	C	1.660092	-0.175138	-0.123732
C22	C	1.613050	-0.173896	0.247470
C23	C	1.518997	-0.171426	0.247476
C24	C	1.471974	-0.170199	0.123741
C25	C	1.519008	-0.171433	0.000001
C26	C	1.471988	-0.170198	-0.123733
C27	C	1.519019	-0.171441	-0.247474
C28	C	1.613069	-0.173911	-0.247467
C29	C	1.377924	-0.167729	0.123734
C30	C	1.377932	-0.167726	-0.123735
C31	C	1.060865	-0.400797	0.000002
C32	C	1.063500	-0.539325	-0.000002
N33	N	1.066026	-0.172668	0.353637
C34	C	1.145358	0.269742	0.000006
C35	C	1.142636	0.412918	0.000001
N36	N	1.066052	-0.172661	-0.353621
C37	C	1.123645	-0.091981	0.421417
C38	C	1.123660	-0.091976	0.578580
H39	H	1.339654	-0.166727	-0.224495
H40	H	1.016704	-0.241740	0.411959
H41	H	1.480723	-0.170428	-0.348218
C42	C	1.664811	-0.175262	-0.383570
N43	N	1.703788	-0.176273	-0.486082
C44	C	1.805882	-0.178973	-0.259838
N45	N	1.844850	-0.179996	-0.362357
H46	H	1.792422	-0.178605	0.224474
C47	C	0.977034	0.249558	0.000007
N48	N	0.908086	0.291413	0.000012
C49	C	1.236895	0.214170	0.000017
N50	N	1.305843	0.172315	0.000031
H51	H	1.480712	-0.170413	0.348234
C52	C	1.326195	-0.166359	0.259840
N53	N	1.287233	-0.165331	0.362364
H54	H	0.997761	0.395588	0.000008
H55	H	1.651342	-0.174890	0.348207
H56	H	1.208371	0.478012	0.000006
H57	H	1.016723	-0.241749	0.588100
C58	C	1.190260	0.001363	0.342632
N59	N	1.240432	0.071678	0.283292
C60	C	1.190304	0.001351	0.657322
N61	N	1.240502	0.071650	0.716634
