data_functionalizedCrystal
_audit_creation_method	'MofGen! by Chris Wilmer'
_symmetry_space_group_name_H-M	'P1'
_symmetry_Int_Tables_number	1
_symmetry_cell_setting	triclinic
loop_
_symmetry_equiv_pos_as_xyz
  x,y,z
_cell_length_a	15.625950
_cell_length_b	10.723024
_cell_length_c	9.798715
_cell_angle_alpha	90.001978
_cell_angle_beta	108.069721
_cell_angle_gamma	95.649731
loop_
_atom_site_label
_atom_site_type_symbol
_atom_site_fract_x
_atom_site_fract_y
_atom_site_fract_z
O1	O	1.197078	-0.163033	0.478743
O2	O	0.934753	-0.182414	0.348961
O3	O	1.071966	0.008914	0.416850
O4	O	1.059864	-0.354360	0.410853
O5	O	1.071956	0.008914	0.643828
O6	O	0.934742	-0.182413	0.575938
O7	O	1.197067	-0.163032	0.705720
Zn8	Zn	1.065903	-0.172723	0.676866
Zn9	Zn	1.065917	-0.172723	0.377814
O10	O	1.059854	-0.354360	0.637830
C11	C	0.901158	-0.181531	0.445831
C12	C	0.801073	-0.178886	0.396315
C13	C	0.471784	-0.170254	0.851921
C14	C	0.377736	-0.167793	0.805329
C15	C	0.377794	-0.167795	0.557911
C16	C	0.471843	-0.170262	0.604482
C17	C	0.518831	-0.171490	0.751489
C18	C	0.518890	-0.171497	0.504050
C19	C	0.612931	-0.173958	0.550618
C20	C	0.659926	-0.175182	0.697619
C21	C	0.612872	-0.173950	0.798057
C22	C	0.471901	-0.170260	0.357044
C23	C	0.518948	-0.171496	0.256612
C24	C	0.612990	-0.173965	0.303179
C25	C	0.659985	-0.175190	0.450179
C26	C	0.660044	-0.175198	0.202740
C27	C	0.754085	-0.177658	0.249308
C28	C	0.754026	-0.177650	0.496748
C29	C	1.071080	0.055405	0.529902
C30	C	1.068445	0.193932	0.528593
C31	C	1.230662	-0.163915	0.608846
C32	C	1.330747	-0.166560	0.658354
C33	C	1.060740	-0.400851	0.524776
C34	C	1.063375	-0.539378	0.526075
N35	N	1.065901	-0.172722	0.880965
C36	C	1.145223	0.269684	0.566576
C37	C	1.142501	0.412860	0.565225
N38	N	1.065926	-0.172715	0.173719
C39	C	1.123513	-0.092037	0.977247
C40	C	1.123527	-0.092033	1.134417
H41	H	0.339432	-0.166816	0.887124
H42	H	1.172823	-0.022958	0.943322
C43	C	0.326097	-0.166444	0.396207
N44	N	0.287159	-0.165431	0.274409
H45	H	0.510042	-0.171273	0.971628
C46	C	0.608346	-0.173835	0.041038
N47	N	0.569407	-0.172809	-0.080759
H48	H	1.016584	-0.241791	0.914888
H49	H	0.736500	-0.177184	0.735532
H50	H	1.208229	0.477951	0.597747
C51	C	1.236749	0.214108	0.611868
N52	N	1.305689	0.172250	0.645988
H53	H	1.016603	-0.241800	1.091039
H54	H	1.000699	0.235076	0.495067
H55	H	0.792391	-0.178670	0.167526
C56	C	0.974572	0.372697	0.482142
N57	N	0.907687	0.306463	0.449049
C58	C	0.805717	-0.179009	0.658463
N59	N	0.844651	-0.180029	0.780262
H60	H	0.395326	-0.168264	0.319133
C61	C	0.467251	-0.170146	0.094908
N62	N	0.428313	-0.169133	-0.026890
H63	H	1.172855	-0.022960	1.217108
H64	H	0.651130	-0.174969	0.917764
