data_functionalizedCrystal
_audit_creation_method	'MofGen! by Chris Wilmer'
_symmetry_space_group_name_H-M	'P1'
_symmetry_Int_Tables_number	1
_symmetry_cell_setting	triclinic
loop_
_symmetry_equiv_pos_as_xyz
  x,y,z
_cell_length_a	19.377625
_cell_length_b	19.377369
_cell_length_c	14.560438
_cell_angle_alpha	72.125218
_cell_angle_beta	75.508567
_cell_angle_gamma	44.223055
loop_
_atom_site_label
_atom_site_type_symbol
_atom_site_fract_x
_atom_site_fract_y
_atom_site_fract_z
Zr1	Zr	0.544492	0.779836	-0.117728
O2	O	0.403576	0.928482	-0.182365
O3	O	0.606484	0.631194	-0.128503
O4	O	0.579385	0.779834	-0.275994
O5	O	0.430672	0.779841	0.116266
O6	O	0.696688	0.779828	-0.315053
O7	O	0.430675	0.779842	-0.034874
O8	O	0.745163	0.513937	-0.051218
O9	O	0.382198	1.045732	-0.147569
O10	O	0.697759	0.692326	-0.125289
O11	O	0.610215	0.692330	0.016654
O12	O	0.578310	0.867335	-0.156998
O13	O	0.490766	0.867340	-0.015054
Zr14	Zr	0.731573	0.779825	0.061029
Zr15	Zr	0.731577	0.779826	-0.180022
Zr16	Zr	0.544488	0.779835	0.123324
Zr17	Zr	0.510396	0.966836	-0.062231
Zr18	Zr	0.765669	0.592825	0.005533
O19	O	0.669582	0.928467	0.071804
O20	O	0.669587	0.928468	-0.270940
O21	O	0.403571	0.928481	0.160379
O22	O	0.872489	0.631179	0.125667
O23	O	0.872494	0.631179	-0.217077
O24	O	0.606479	0.631193	0.214242
O25	O	0.845393	0.779819	-0.172965
O26	O	0.696680	0.779827	0.219295
O27	O	0.579377	0.779833	0.258354
O28	O	0.845391	0.779819	-0.021824
O29	O	0.530906	1.045724	-0.197084
O30	O	0.745160	0.513937	0.140386
O31	O	0.893867	0.513929	0.090870
O32	O	0.893870	0.513929	-0.100733
O33	O	0.382195	1.045732	0.044035
O34	O	0.530903	1.045724	-0.005481
O35	O	0.697755	0.692325	0.100299
O36	O	0.785299	0.692321	-0.041644
O37	O	0.665850	0.867330	-0.073353
O38	O	0.578307	0.867335	0.068591
C39	C	0.680681	0.545922	-0.097767
C40	C	0.695156	0.466536	-0.121327
C41	C	0.514647	0.205146	0.171848
C42	C	0.528368	0.130460	0.149751
C43	C	0.619757	0.130465	0.001572
C44	C	0.606048	0.205149	0.023660
C45	C	0.553491	0.242485	0.108799
C46	C	0.644892	0.242488	-0.039390
C47	C	0.631180	0.317169	-0.017306
C48	C	0.578623	0.354513	0.067827
C49	C	0.539779	0.317167	0.130882
C50	C	0.697442	0.205156	-0.124531
C51	C	0.736286	0.242494	-0.187581
C52	C	0.722580	0.317172	-0.165494
C53	C	0.670024	0.354515	-0.080361
C54	C	0.761425	0.354518	-0.228549
C55	C	0.747712	0.429200	-0.206466
C56	C	0.656311	0.429197	-0.058277
C57	C	0.404018	0.779843	0.049572
C58	C	0.324595	0.779847	0.076017
C59	C	0.063391	0.779822	-0.253278
C60	C	-0.011233	0.779818	-0.228397
C61	C	-0.011215	0.779818	-0.061879
C62	C	0.063407	0.779827	-0.086747
C63	C	0.100705	0.779828	-0.182448
C64	C	0.100721	0.779832	-0.015917
C65	C	0.175341	0.779836	-0.040782
C66	C	0.212646	0.779834	-0.136478
C67	C	0.175324	0.779831	-0.207314
C68	C	0.063427	0.779824	0.079785
C69	C	0.100741	0.779830	0.150615
C70	C	0.175357	0.779840	0.125749
C71	C	0.212662	0.779838	0.030053
C72	C	0.212678	0.779843	0.196584
C73	C	0.287298	0.779846	0.171718
C74	C	0.287281	0.779842	0.005187
C75	C	0.872047	0.779818	-0.106270
C76	C	0.951470	0.779814	-0.132716
C77	C	0.638037	0.779831	-0.329868
C78	C	0.638039	0.779831	-0.432201
C79	C	0.595384	1.013739	0.041069
C80	C	0.580910	1.093125	0.064629
C81	C	0.702657	0.779832	-0.501800
C82	C	0.702654	0.779828	-0.597949
C83	C	0.573405	0.779826	-0.554890
C84	C	0.573414	0.779823	-0.458741
C85	C	0.767282	0.779840	-0.475259
C86	C	0.831905	0.779842	-0.544860
C87	C	0.831901	0.779837	-0.641009
C88	C	0.767275	0.779831	-0.667557
C89	C	0.638028	0.779830	0.273169
C90	C	0.638026	0.779830	0.375502
C91	C	0.914696	0.545909	-0.175688
C92	C	1.008593	0.466519	-0.225694
C93	C	0.680677	0.545921	0.203751
C94	C	0.695149	0.466535	0.282524
C95	C	0.914691	0.545909	0.125831
C96	C	1.008587	0.466518	0.178158
C97	C	0.361374	1.013752	-0.182529
C98	C	0.267479	1.093143	-0.234856
C99	C	0.361369	1.013751	0.118990
C100	C	0.267472	1.093142	0.168995
C101	C	0.595389	1.013739	-0.260450
C102	C	0.580916	1.093126	-0.339223
C103	C	1.006993	0.429239	-0.292849
C104	C	1.095210	0.354653	-0.339851
C105	C	1.185027	0.317344	-0.319692
C106	C	1.186624	0.354631	-0.252532
C107	C	1.098407	0.429221	-0.205536
C108	C	0.747641	0.429252	0.363189
C109	C	0.761235	0.354670	0.437218
C110	C	0.722342	0.317368	0.430577
C111	C	0.669843	0.354658	0.349905
C112	C	0.656244	0.429244	0.275881
C113	C	1.098386	0.429233	0.128636
C114	C	1.186616	0.354647	0.177794
C115	C	1.185045	0.317343	0.276473
C116	C	1.095236	0.354635	0.325998
C117	C	1.007007	0.429225	0.276841
C118	C	0.177678	1.130437	-0.185331
C119	C	0.089444	1.205046	-0.234483
C120	C	0.091013	1.242354	-0.333161
C121	C	0.180823	1.205057	-0.382688
C122	C	0.269055	1.130454	-0.333534
C123	C	0.269071	1.130430	0.236142
C124	C	0.180850	1.205036	0.283125
C125	C	0.091033	1.242348	0.262963
C126	C	0.089436	1.205057	0.195807
C127	C	0.177655	1.130457	0.148821
C128	C	0.619822	1.130404	-0.332556
C129	C	0.606242	1.204987	-0.406571
C130	C	0.553750	1.242294	-0.487248
C131	C	0.514843	1.205008	-0.493915
C132	C	0.528430	1.130422	-0.419904
H133	H	0.496729	0.100064	0.201098
Cl134	Cl	1.100384	0.476121	0.004583
Cl135	Cl	0.894091	0.476130	-0.318213
Cl136	Cl	0.796548	0.476127	0.371559
H137	H	0.803986	0.324317	0.502896
H138	H	0.317680	0.779849	0.229396
Cl139	Cl	0.685822	0.083524	-0.105457
H140	H	1.099724	0.459564	-0.150852
H141	H	0.176382	1.100065	-0.104984
Cl142	Cl	-0.030377	0.779813	0.111041
Cl143	Cl	0.894123	0.476082	0.339113
Cl144	Cl	0.448582	0.252082	0.278886
H145	H	0.016327	1.235401	-0.194141
H146	H	0.317644	0.779853	-0.072745
H147	H	0.472103	1.235396	-0.559612
H148	H	-0.041610	0.779812	-0.286083
H149	H	0.019163	1.303100	-0.373173
H150	H	0.496742	1.100078	-0.425343
Cl151	Cl	0.590257	0.476099	0.174474
H152	H	0.779075	0.212089	-0.256903
H153	H	0.182170	1.235386	0.337805
H154	H	0.638180	0.324276	0.344511
Cl155	Cl	0.590247	0.476133	0.048760
H156	H	0.567455	0.415327	0.085803
Cl157	Cl	1.093279	0.307726	0.450053
H158	H	1.259734	0.324291	0.137454
H159	H	0.733422	0.256636	0.490859
H160	H	0.496983	0.347567	0.200211
Cl161	Cl	-0.023485	1.251970	0.170476
H162	H	0.182307	0.779832	0.274505
Cl163	Cl	1.295972	0.223570	0.338257
Cl164	Cl	0.714672	0.111273	-0.152293
H165	H	0.182089	1.235443	-0.463036
Cl166	Cl	0.913154	0.779836	-0.511485
Cl167	Cl	0.306459	0.779832	-0.167738
H168	H	0.205687	0.779842	-0.285245
Cl169	Cl	0.381944	1.083572	-0.395813
Cl170	Cl	0.175630	1.083583	0.064414
H171	H	0.662564	1.100040	-0.266870
H172	H	0.093753	0.779833	-0.331210
H173	H	0.520788	0.779822	-0.576512
Cl174	Cl	0.767286	0.779851	-0.354389
H175	H	0.804208	0.324117	-0.297874
Cl176	Cl	1.093180	0.307788	-0.424271
Cl177	Cl	0.381972	1.083544	0.261501
Cl178	Cl	0.796544	0.476144	-0.285730
H179	H	0.019206	1.303092	0.301229
H180	H	0.884526	0.779829	-0.697677
Cl181	Cl	0.655153	1.251850	-0.398167
H182	H	0.542693	1.303027	-0.547506
H183	H	-0.041589	0.779813	0.016042
Cl184	Cl	0.492180	0.779818	-0.371242
Cl185	Cl	0.053849	0.779825	0.270921
H186	H	0.767285	0.779818	-0.745848
H187	H	1.256852	0.256607	-0.357965
H188	H	1.259765	0.324243	-0.236128
