data_functionalizedCrystal
_audit_creation_method	'MofGen! by Chris Wilmer'
_symmetry_space_group_name_H-M	'P1'
_symmetry_Int_Tables_number	1
_symmetry_cell_setting	triclinic
loop_
_symmetry_equiv_pos_as_xyz
  x,y,z
_cell_length_a	10.967926
_cell_length_b	14.044220
_cell_length_c	10.065922
_cell_angle_alpha	80.968971
_cell_angle_beta	92.198823
_cell_angle_gamma	88.855190
loop_
_atom_site_label
_atom_site_type_symbol
_atom_site_fract_x
_atom_site_fract_y
_atom_site_fract_z
O1	O	1.628284	0.103391	0.269469
O2	O	2.128284	0.603391	0.769469
O3	O	1.279263	0.125158	0.187377
O4	O	1.779263	0.625158	0.687377
O5	O	1.448532	-0.023611	0.227204
O6	O	1.948532	0.476389	0.727204
O7	O	1.459014	0.252160	0.229642
O8	O	1.959014	0.752160	0.729642
O9	O	1.414248	-0.047696	0.446131
O10	O	1.914248	0.452304	0.946131
O11	O	1.244978	0.101073	0.406304
O12	O	1.744978	0.601073	0.906304
O13	O	1.593999	0.079307	0.488396
O14	O	2.093999	0.579307	0.988396
Zn15	Zn	1.414045	0.086366	0.482109
Zn16	Zn	1.914045	0.586366	0.982109
Zn17	Zn	1.459217	0.118098	0.193664
Zn18	Zn	1.959217	0.618098	0.693664
O19	O	1.424729	0.228076	0.448569
O20	O	1.924729	0.728076	0.948569
C21	C	1.217183	0.113351	0.286271
C22	C	1.717183	0.613351	0.786271
C23	C	1.083284	0.114044	0.254778
C24	C	1.583284	0.614044	0.754778
C25	C	1.005827	0.101876	0.354147
C26	C	1.505827	0.601876	0.854147
C27	C	0.867435	0.102591	0.321600
C28	C	1.367435	0.602591	0.821600
C29	C	1.426804	-0.070880	0.335589
C30	C	1.926804	0.429120	0.835589
C31	C	1.413123	-0.175845	0.332373
C32	C	1.913123	0.324155	0.832373
C33	C	1.388115	-0.368025	0.326471
C34	C	1.888115	0.131975	0.826471
C35	C	1.485143	-0.427515	0.349289
C36	C	1.985143	0.072485	0.849289
C37	C	1.471228	-0.534451	0.346005
C38	C	1.971228	-0.034451	0.846005
C39	C	1.402028	-0.261079	0.329755
C40	C	1.902028	0.238921	0.829755
C41	C	1.656079	0.091113	0.389499
C42	C	2.156079	0.591113	0.889499
C43	C	1.789979	0.090422	0.420984
C44	C	2.289979	0.590422	0.920984
C45	C	1.446459	0.275345	0.340181
C46	C	1.946459	0.775345	0.840181
C47	C	1.460141	0.380310	0.343388
C48	C	1.960141	0.880310	0.843388
N49	N	1.383226	0.064708	0.678968
N50	N	1.883226	0.564708	1.178968
C51	C	1.448480	0.110567	0.762091
C52	C	1.948480	0.610567	1.262091
C53	C	1.424770	0.093890	0.913683
C54	C	1.924770	0.593890	1.413683
N55	N	1.490034	0.139756	0.996805
N56	N	1.990034	0.639756	1.496805
H57	H	0.826114	0.079471	0.530162
H58	H	1.326114	0.579471	1.030162
N59	N	1.270797	-0.404884	0.298919
N60	N	1.770797	0.095116	0.798919
N61	N	1.185110	-0.395169	0.374467
N62	N	1.685110	0.104831	0.874467
H63	H	1.102253	-0.421212	0.355019
H64	H	1.602253	0.078788	0.855019
N65	N	1.332639	0.029159	0.965171
N66	N	1.832639	0.529159	1.465171
N67	N	1.224027	0.044500	0.923801
N68	N	1.724027	0.544500	1.423801
H69	H	1.158958	-0.001214	0.960165
H70	H	1.658958	0.498786	1.460165
N71	N	1.540592	0.175300	0.710572
N72	N	2.040592	0.675300	1.210572
N73	N	1.559727	0.188752	0.587503
N74	N	2.059727	0.688752	1.087503
H75	H	1.624784	0.234470	0.551119
H76	H	2.124784	0.734470	1.051119
H77	H	0.831299	0.113536	0.212423
H78	H	1.331299	0.613536	0.712423
H79	H	1.047143	0.124988	0.145608
H80	H	1.547143	0.624988	0.645608
H81	H	1.578676	-0.398124	0.371197
H82	H	2.078676	0.101876	0.871197
H83	H	1.563462	0.191365	0.955750
H84	H	2.063462	0.691365	1.455750
N85	N	1.051174	0.088132	0.491097
N86	N	1.551174	0.588132	0.991097
N87	N	1.163531	0.087566	0.517343
N88	N	1.663531	0.587566	1.017343
H89	H	1.195557	0.077858	0.614067
H90	H	1.695557	0.577858	1.114067
N91	N	1.291130	-0.000039	0.730490
N92	N	1.791130	0.499961	1.230490
N93	N	1.272003	-0.013497	0.853562
N94	N	1.772003	0.486503	1.353562
H95	H	1.206959	-0.059227	0.889949
H96	H	1.706959	0.440773	1.389949
