data_functionalizedCrystal
_audit_creation_method	'MofGen! by Chris Wilmer'
_symmetry_space_group_name_H-M	'P1'
_symmetry_Int_Tables_number	1
_symmetry_cell_setting	triclinic
loop_
_symmetry_equiv_pos_as_xyz
  x,y,z
_cell_length_a	16.109301
_cell_length_b	16.109301
_cell_length_c	14.586319
_cell_angle_alpha	90.005214
_cell_angle_beta	89.996501
_cell_angle_gamma	96.538519
loop_
_atom_site_label
_atom_site_type_symbol
_atom_site_fract_x
_atom_site_fract_y
_atom_site_fract_z
O1	O	1.103131	-0.106866	-0.076243
O2	O	0.861069	-0.120165	-0.076245
O3	O	0.988749	0.007515	-0.076235
O4	O	0.975450	-0.234547	-0.076254
O5	O	0.988741	0.007517	0.076246
O6	O	0.861060	-0.120164	0.076236
O7	O	1.103122	-0.106864	0.076238
Cu8	Cu	0.982090	-0.113514	0.090159
Cu9	Cu	0.982101	-0.113516	-0.090167
O10	O	0.975441	-0.234545	0.076227
C11	C	0.830090	-0.119626	-0.000005
C12	C	0.737794	-0.118011	-0.000006
C13	C	1.134101	-0.107404	-0.000004
C14	C	1.226397	-0.109019	-0.000010
C15	C	1.448669	-0.037011	0.000000
C16	C	1.535389	-0.038535	0.000003
C17	C	1.515515	-0.190024	-0.000013
C18	C	1.428796	-0.188499	-0.000010
C19	C	1.395376	-0.111990	-0.000008
C20	C	1.568815	-0.115039	-0.000008
C21	C	1.662841	-0.116692	-0.000005
C22	C	1.301344	-0.110337	-0.000009
C23	C	0.988206	0.038491	0.000006
C24	C	0.986591	0.130786	0.000007
C25	C	0.975984	-0.265521	-0.000016
C26	C	0.977600	-0.357816	-0.000023
N27	N	0.982089	-0.113512	0.216991
C28	C	1.058599	0.353059	-0.000006
C29	C	1.057075	0.439779	-0.000014
C30	C	0.905586	0.419905	-0.000012
C31	C	0.907111	0.333186	-0.000011
C32	C	0.983620	0.299766	-0.000003
C33	C	0.980571	0.473205	-0.000012
C34	C	0.978918	0.567231	-0.000020
C35	C	0.985273	0.205734	0.000003
N36	N	0.982109	-0.113511	-0.216999
C37	C	1.038645	-0.056994	0.452002
C38	C	1.038647	-0.056992	0.547983
C39	C	0.925547	-0.170032	0.547984
C40	C	0.925541	-0.170030	0.452004
C41	C	0.982095	-0.113511	0.404016
C42	C	0.982103	-0.113512	0.595977
C43	C	0.982105	-0.113510	0.700044
C44	C	0.982092	-0.113512	0.299942
H45	H	1.421461	0.025287	0.000004
H46	H	0.846050	0.289792	-0.000011
H47	H	1.578778	0.022520	0.000011
H48	H	1.118130	0.483168	-0.000018
O49	O	1.551560	-0.272543	-0.000025
H50	H	1.620815	-0.261008	-0.000036
H51	H	1.084693	-0.010972	0.412932
O52	O	0.823071	0.455957	-0.000012
H53	H	0.771189	0.404327	-0.000019
O54	O	1.099650	0.003956	0.599744
H55	H	1.138978	0.043247	0.550247
H56	H	1.385402	-0.249560	-0.000013
H57	H	1.120897	0.325851	-0.000002
H58	H	0.879503	-0.216049	0.587065
O59	O	0.864548	-0.230993	0.400236
H60	H	0.825233	-0.270303	0.449728
