data_functionalizedCrystal
_audit_creation_method	'MofGen! by Chris Wilmer'
_symmetry_space_group_name_H-M	'P1'
_symmetry_Int_Tables_number	1
_symmetry_cell_setting	triclinic
loop_
_symmetry_equiv_pos_as_xyz
  x,y,z
_cell_length_a	13.897449
_cell_length_b	25.639239
_cell_length_c	13.897441
_cell_angle_alpha	90.033334
_cell_angle_beta	90.018596
_cell_angle_gamma	90.039966
loop_
_atom_site_label
_atom_site_type_symbol
_atom_site_fract_x
_atom_site_fract_y
_atom_site_fract_z
Zn1	Zn	1.474542	-0.208121	0.545356
Zn2	Zn	1.474382	-0.295562	0.384047
Zn3	Zn	1.313237	-0.208145	0.384075
Zn4	Zn	1.313153	-0.295529	0.545300
O5	O	1.393829	-0.251839	0.464694
O6	O	1.609502	-0.219725	0.523970
O7	O	1.452974	-0.283990	0.249069
O8	O	1.334736	-0.134976	0.405504
O9	O	1.609385	-0.283967	0.405457
O10	O	1.453246	-0.134959	0.523997
O11	O	1.334581	-0.219764	0.249089
O12	O	1.178244	-0.219733	0.405449
O13	O	1.334594	-0.283911	0.680289
O14	O	1.178183	-0.283934	0.523901
O15	O	1.453165	-0.219693	0.680331
O16	O	1.452894	-0.368723	0.405403
O17	O	1.334439	-0.368699	0.523874
C18	C	1.143214	-0.251832	0.464673
C19	C	1.036000	-0.251842	0.464686
C20	C	0.839705	-0.251844	0.464711
C21	C	0.948938	-0.251841	0.464695
C22	C	1.393666	-0.387682	0.464650
C23	C	1.393685	-0.445796	0.464664
C24	C	1.455669	-0.806159	0.403111
C25	C	1.455706	-0.860763	0.403124
O26	O	1.508238	-0.889000	0.350742
N27	N	1.393998	-0.888078	0.464758
C28	C	1.332256	-0.860786	0.526391
O29	O	1.279772	-0.889034	0.578817
C30	C	1.332224	-0.806183	0.526382
C31	C	1.393929	-0.778871	0.464737
C32	C	1.517369	-0.778847	0.341472
C33	C	1.517331	-0.724246	0.341458
C34	C	1.455591	-0.696958	0.403084
C35	C	1.393890	-0.724270	0.464723
C36	C	1.270487	-0.778892	0.588018
C37	C	1.270461	-0.724285	0.588004
C38	C	1.332166	-0.696973	0.526359
C39	C	1.332111	-0.642382	0.526334
N40	N	1.393819	-0.615066	0.464700
C41	C	1.455559	-0.642355	0.403075
C42	C	1.332328	-0.975457	0.526405
C43	C	1.332354	-1.030059	0.526410
C44	C	1.455806	-1.030033	0.403145
C45	C	1.455775	-0.975429	0.403136
C46	C	1.394036	-0.948142	0.464771
C47	C	1.455472	-0.527690	0.403050
C48	C	1.455425	-0.473084	0.403038
C49	C	1.331977	-0.473116	0.526307
C50	C	1.332020	-0.527716	0.526315
C51	C	1.393776	-0.555002	0.464683
O52	O	1.279609	-0.614110	0.578693
O53	O	1.508043	-0.614100	0.350666
C54	C	1.645421	-0.251847	0.464717
C55	C	1.752635	-0.251850	0.464727
C56	C	1.393888	-0.251796	0.716288
C57	C	1.393913	-0.251777	0.823502
C58	C	1.394018	-0.115466	0.464760
C59	C	1.394098	-0.057352	0.464788
C60	C	1.393825	-0.251845	0.214080
C61	C	1.393987	-0.251717	0.106867
C62	C	1.393933	-0.251762	0.910571
C63	C	1.393960	-0.251739	1.019804
H64	H	1.505672	-0.450848	0.352836
H65	H	1.281778	-0.549955	0.576514
N66	N	1.265382	-0.443678	0.592765
H67	H	1.274729	-0.404944	0.583399
H68	H	1.280363	-0.453185	0.661672
H69	H	1.506021	-0.953195	0.352940
H70	H	1.505761	-0.549899	0.352865
H71	H	1.567579	-0.702012	0.291265
N72	N	1.583967	-0.808274	0.275001
H73	H	1.623043	-0.782678	0.235958
H74	H	1.544743	-0.830965	0.230325
H75	H	1.506082	-1.052261	0.352969
N76	N	1.265784	-1.059510	0.592887
H77	H	1.280718	-1.049970	0.661817
H78	H	1.275195	-1.098234	0.583471
N79	N	1.265727	-0.946027	0.592879
H80	H	1.226643	-0.971621	0.631919
H81	H	1.221095	-0.923413	0.553571
N82	N	1.203927	-0.808336	0.654510
H83	H	1.218872	-0.798793	0.723436
H84	H	1.213330	-0.847060	0.645100
N85	N	1.203873	-0.694854	0.654486
H86	H	1.164792	-0.720445	0.693535
H87	H	1.159237	-0.672240	0.615181
