data_functionalizedCrystal
_audit_creation_method	'MofGen! by Chris Wilmer'
_symmetry_space_group_name_H-M	'P1'
_symmetry_Int_Tables_number	1
_symmetry_cell_setting	triclinic
loop_
_symmetry_equiv_pos_as_xyz
  x,y,z
_cell_length_a	10.654538
_cell_length_b	13.930277
_cell_length_c	10.654550
_cell_angle_alpha	90.003358
_cell_angle_beta	95.517540
_cell_angle_gamma	89.992248
loop_
_atom_site_label
_atom_site_type_symbol
_atom_site_fract_x
_atom_site_fract_y
_atom_site_fract_z
O1	O	-1.667855	0.079841	0.176326
O2	O	-1.302375	0.079840	0.193148
O3	O	-1.493518	0.079837	0.001998
O4	O	-1.476712	0.079844	0.367477
O5	O	-1.493491	-0.079825	0.001993
O6	O	-1.302348	-0.079822	0.193144
O7	O	-1.667828	-0.079821	0.176322
Zn8	Zn	-1.485084	-0.105171	0.184732
Zn9	Zn	-1.485119	0.105190	0.184738
O10	O	-1.476685	-0.079818	0.367472
C11	C	-1.255563	0.000009	0.191914
C12	C	-1.116119	0.000008	0.188228
N13	N	-1.485069	-0.248737	0.184728
C14	C	-0.919571	-0.087027	0.183017
C15	C	-1.050593	-0.087026	0.186491
C16	C	-1.050616	0.087046	0.186503
C17	C	-0.919596	0.087044	0.183037
C18	C	-0.854053	-0.174067	0.181268
C19	C	-0.919547	-0.261106	0.182995
C20	C	-1.050568	-0.261104	0.186469
C21	C	-1.116096	-0.174064	0.188217
C22	C	-1.400477	-0.701005	0.269346
C23	C	-1.569795	-0.700978	0.100121
C24	C	-1.569780	-0.600482	0.100116
C25	C	-1.485114	-0.550243	0.184730
C26	C	-1.400462	-0.600500	0.269347
C27	C	-1.654439	-0.550217	0.015509
C28	C	-1.654429	-0.449715	0.015503
C29	C	-1.569755	-0.399475	0.100111
C30	C	-1.485099	-0.449738	0.184731
C31	C	-1.400432	-0.399500	0.269344
C32	C	-1.315769	-0.449761	0.353959
C33	C	-1.315788	-0.550260	0.353955
C34	C	-1.569735	-0.298976	0.100114
C35	C	-1.400417	-0.298995	0.269345
C36	C	-0.714638	0.000008	0.177568
C37	C	-0.854078	0.000004	0.181288
C38	C	-1.492271	0.000007	-0.044802
C39	C	-1.488579	0.000010	-0.184246
N40	N	-1.485144	0.248756	0.184733
C41	C	-1.601121	0.000008	-0.263736
C42	C	-1.597644	0.000014	-0.394757
C43	C	-1.369073	0.000022	-0.366784
C44	C	-1.372551	0.000022	-0.235765
C45	C	-1.717148	-0.000004	-0.212216
C46	C	-1.829699	-0.000008	-0.291708
C47	C	-1.826223	-0.000001	-0.422729
C48	C	-1.710195	0.000009	-0.474258
C49	C	-1.477932	0.000014	0.414273
C50	C	-1.481624	0.000017	0.553716
H51	H	-0.747370	-0.174078	0.178436
O52	O	-1.947607	-0.000010	-0.508472
H53	H	-2.028867	-0.000027	-0.450631
H54	H	-1.723379	-0.591125	-0.053374
O55	O	-1.121211	-0.354974	0.188367
H56	H	-1.053635	-0.415494	0.186571
O57	O	-0.848810	-0.354981	0.181715
H58	H	-0.746675	-0.340363	0.179216
H59	H	-1.723364	-0.408798	-0.053396
O60	O	-1.257412	-0.174056	0.191965
H61	H	-1.291950	-0.249198	0.192869
H62	H	-1.103979	0.157910	0.187924
O63	O	-1.224439	-0.395561	0.445196
H64	H	-1.277822	-0.349751	0.506720
O65	O	-1.661033	-0.244762	0.008861
H66	H	-1.719907	-0.296580	-0.049977
O67	O	-1.243936	0.000026	-0.422356
H68	H	-1.189790	-0.065046	-0.390494
H69	H	-1.246860	-0.591189	0.422846
O70	O	-0.848944	0.180910	0.181154
H71	H	-0.916515	0.241435	0.182929
O72	O	-1.309100	-0.244808	0.360611
H73	H	-1.250244	-0.296644	0.419449
O74	O	-1.706437	0.000014	-0.615573
H75	H	-1.804188	0.000007	-0.662196
O76	O	-1.251171	0.000016	-0.150015
H77	H	-1.169906	0.000007	-0.207848
O78	O	-1.309170	-0.755205	0.360614
H79	H	-1.323403	-0.833530	0.346410
H80	H	-1.719992	-0.000013	-0.105534
H81	H	-1.638735	-0.741885	0.031237
H82	H	-1.924165	0.000007	-0.249744
