data_functionalizedCrystal
_audit_creation_method	'MofGen! by Chris Wilmer'
_symmetry_space_group_name_H-M	'P1'
_symmetry_Int_Tables_number	1
_symmetry_cell_setting	triclinic
loop_
_symmetry_equiv_pos_as_xyz
  x,y,z
_cell_length_a	19.121424
_cell_length_b	19.120786
_cell_length_c	14.908308
_cell_angle_alpha	90.683525
_cell_angle_beta	95.563320
_cell_angle_gamma	95.008527
loop_
_atom_site_label
_atom_site_type_symbol
_atom_site_fract_x
_atom_site_fract_y
_atom_site_fract_z
Zn1	Zn	1.043100	-0.254811	-0.439146
Zn2	Zn	1.543100	0.245189	0.060854
Zn3	Zn	1.045365	-0.365126	-0.282113
Zn4	Zn	1.545365	0.134874	0.217887
Zn5	Zn	0.932229	-0.253072	-0.294454
Zn6	Zn	1.432229	0.246928	0.205546
Zn7	Zn	0.920388	-0.377469	-0.439068
Zn8	Zn	1.420388	0.122531	0.060932
O9	O	0.985271	-0.312619	-0.363695
O10	O	1.485271	0.187381	0.136305
O11	O	1.142104	-0.265007	-0.413182
O12	O	1.642104	0.234993	0.086818
O13	O	1.036260	-0.344369	-0.157510
O14	O	1.536260	0.155631	0.342490
O15	O	0.950944	-0.155074	-0.318845
O16	O	1.450944	0.344926	0.181155
O17	O	1.143767	-0.346055	-0.297811
O18	O	1.643767	0.153945	0.202189
O19	O	1.032401	-0.156352	-0.425149
O20	O	1.532401	0.343648	0.074851
O21	O	0.953140	-0.262043	-0.166577
O22	O	1.453140	0.237957	0.333423
O23	O	0.831955	-0.274011	-0.318770
O24	O	1.331955	0.225989	0.181230
O25	O	0.930763	-0.367091	-0.565319
O26	O	1.430763	0.132909	-0.065319
O27	O	0.823256	-0.365405	-0.425018
O28	O	1.323256	0.134595	0.074982
O29	O	1.020919	-0.276975	-0.565376
O30	O	1.520919	0.223025	-0.065376
O31	O	1.024778	-0.464992	-0.297736
O32	O	1.524778	0.035008	0.202264
O33	O	0.932959	-0.474060	-0.413051
O34	O	1.432959	0.025940	0.086949
C35	C	0.802013	-0.320859	-0.373225
C36	C	1.302013	0.179141	0.126775
C37	C	0.723613	-0.324402	-0.377323
C38	C	1.223613	0.175598	0.122677
C39	C	0.279969	-0.346809	-0.403340
C40	C	0.779969	0.153191	0.096660
C41	C	0.353635	-0.343485	-0.399473
C42	C	0.853635	0.156515	0.100527
C43	C	0.394972	-0.294171	-0.342322
C44	C	0.894972	0.205829	0.157678
C45	C	0.362641	-0.248184	-0.289027
C46	C	0.862641	0.251816	0.210973
C47	C	0.288976	-0.251512	-0.292890
C48	C	0.788976	0.248488	0.207110
C49	C	0.617617	-0.281742	-0.327891
C50	C	1.117617	0.218258	0.172109
C51	C	0.691286	-0.278416	-0.324034
C52	C	1.191286	0.221584	0.175966
C53	C	0.682275	-0.373719	-0.434479
C54	C	1.182275	0.126281	0.065521
C55	C	0.608609	-0.377040	-0.438341
C56	C	1.108609	0.122960	0.061659
C57	C	0.576284	-0.331054	-0.385043
C58	C	1.076284	0.168946	0.114957
C59	C	0.470271	-0.290771	-0.338370
C60	C	0.970271	0.209229	0.161630
C61	C	0.500987	-0.334459	-0.388991
C62	C	1.000987	0.165541	0.111009
C63	C	0.977848	-0.494995	-0.354064
C64	C	1.477848	0.005005	0.145936
C65	C	0.974735	-0.573015	-0.349971
C66	C	1.474735	-0.073015	0.150029
C67	C	1.015647	-0.610277	-0.403443
C68	C	1.515647	-0.110277	0.096557
C69	C	1.012720	-0.683585	-0.399599
C70	C	1.512720	-0.183585	0.100401
C71	C	0.968884	-0.719629	-0.342277
C72	C	1.468884	-0.219629	0.157723
C73	C	0.927967	-0.682362	-0.288802
C74	C	1.427967	-0.182362	0.211198
C75	C	0.930891	-0.609056	-0.292652
C76	C	1.430891	-0.109056	0.207348
C77	C	0.957932	-0.940937	-0.327886
C78	C	1.457932	-0.440937	0.172114
C79	C	0.955012	-1.014248	-0.324038
C80	C	1.455012	-0.514248	0.175962
C81	C	1.039764	-1.015466	-0.434837
C82	C	1.539764	-0.515466	0.065163
C83	C	1.042688	-0.942158	-0.438677
C84	C	1.542688	-0.442158	0.061323
C85	C	1.001768	-0.904898	-0.385206
C86	C	1.501768	-0.404898	0.114794
C87	C	0.965892	-0.794562	-0.338344
C88	C	1.465892	-0.294562	0.161656
C89	C	1.004757	-0.829967	-0.389145
C90	C	1.504757	-0.329967	0.110855
C91	C	1.169244	-0.304348	-0.354129
C92	C	1.669244	0.195652	0.145871
C93	C	1.247642	-0.300824	-0.350052
C94	C	1.747642	0.199176	0.149948
C95	C	0.974268	-0.323604	-0.598995
C96	C	1.474268	0.176396	-0.098995
C97	C	0.969579	-0.328284	-0.699266
C98	C	1.469579	0.171716	-0.199266
C99	C	0.992741	-0.129531	-0.373383
C100	C	1.492741	0.370469	0.126617
C101	C	0.995924	-0.051510	-0.377511
C102	C	1.495924	0.448490	0.122489
C103	C	1.054647	-0.243226	-0.887747
C104	C	1.554647	0.256774	-0.387747
C105	C	1.050244	-0.247621	-0.981961
C106	C	1.550244	0.252379	-0.481961
C107	C	0.956367	-0.341467	-0.981908
C108	C	1.456367	0.158533	-0.481908
C109	C	0.960770	-0.337071	-0.887695
C110	C	1.460770	0.162929	-0.387695
C111	C	1.009912	-0.287950	-0.840618
C112	C	1.509912	0.212050	-0.340618
C113	C	1.014319	-0.283558	-0.746402
C114	C	1.514319	0.216442	-0.246402
C115	C	0.920439	-0.377400	-0.746352
C116	C	1.420439	0.122600	-0.246352
C117	C	0.916036	-0.381796	-0.840565
C118	C	1.416036	0.118204	-0.340565
C119	C	0.996273	-0.301625	-0.129311
C120	C	1.496273	0.198375	0.370689
C121	C	1.001106	-0.296741	-0.029044
C122	C	1.501106	0.203259	0.470956
H123	H	0.708602	-0.411158	-0.477871
H124	H	1.208602	0.088842	0.022129
C125	C	1.099457	-0.198423	-1.033800
C126	C	1.599457	0.301577	-0.533800
N127	N	1.136527	-0.161364	-1.072845
N128	N	1.636527	0.338636	-0.572845
C129	C	1.057737	-0.724570	-0.458411
C130	C	1.557737	-0.224570	0.041589
N131	N	1.091648	-0.755438	-0.502707
N132	N	1.591648	-0.255438	-0.002707
H133	H	0.884014	-0.413820	-0.707969
H134	H	1.384014	0.086180	-0.207969
H135	H	0.916358	-0.381459	-1.020255
H136	H	1.416358	0.118541	-0.520255
C137	C	0.582069	-0.231147	-0.269275
C138	C	1.082069	0.268853	0.230725
N139	N	0.555292	-0.193034	-0.225126
N140	N	1.055292	0.306966	0.274874
H141	H	0.724942	-0.238250	-0.277502
H142	H	1.224942	0.261750	0.222498
C143	C	0.912901	-0.899961	-0.269087
C144	C	1.412901	-0.399961	0.230913
N145	N	0.878976	-0.869096	-0.224805
N146	N	1.378976	-0.369096	0.275195
H147	H	1.073078	-1.045812	-0.478371
H148	H	1.573078	-0.545812	0.021629
H149	H	1.054334	-0.243562	-0.708073
H150	H	1.554334	0.256438	-0.208073
C151	C	0.906784	-1.053895	-0.260980
C152	C	1.406784	-0.553895	0.239020
N153	N	0.870460	-1.083757	-0.213488
N154	N	1.370460	-0.583757	0.286512
C155	C	1.063872	-0.570636	-0.466501
C156	C	1.563872	-0.070636	0.033499
N157	N	1.100195	-0.540780	-0.514001
N158	N	1.600195	-0.040780	-0.014001
H159	H	0.892272	-0.711715	-0.242133
H160	H	1.392272	-0.211715	0.257867
C161	C	1.090925	-0.902514	-0.501719
C162	C	1.590925	-0.402514	-0.001719
N163	N	1.127264	-0.872653	-0.549195
N164	N	1.627264	-0.372653	-0.049195
H165	H	1.094664	-0.203232	-0.849416
H166	H	1.594664	0.296768	-0.349416
H167	H	0.246316	-0.386962	-0.449884
H168	H	0.746316	0.113038	0.050116
C169	C	0.389191	-0.394076	-0.458092
C170	C	0.889191	0.105924	0.041908
N171	N	0.415971	-0.432184	-0.502244
N172	N	0.915971	0.067816	-0.002244
C173	C	0.408115	-0.193933	-0.226167
C174	C	0.908115	0.306067	0.273833
N175	N	0.442365	-0.153066	-0.178825
N176	N	0.942365	0.346934	0.321175
H177	H	0.897575	-0.578717	-0.249110
H178	H	1.397575	-0.078717	0.250890
H179	H	1.040445	-0.800618	-0.435820
H180	H	1.540445	-0.300618	0.064180
H181	H	0.574957	-0.417198	-0.484878
H182	H	1.074957	0.082802	0.015122
H183	H	0.467327	-0.374612	-0.435520
H184	H	0.967327	0.125388	0.064480
C185	C	0.861977	-0.435822	-0.892361
C186	C	1.361977	0.064178	-0.392361
N187	N	0.821259	-0.476515	-0.931373
N188	N	1.321259	0.023485	-0.431373
H189	H	0.503936	-0.250618	-0.291838
H190	H	1.003936	0.249382	0.208162
C191	C	0.253418	-0.200922	-0.234271
C192	C	0.753418	0.299078	0.265729
N193	N	0.226636	-0.162817	-0.190116
N194	N	0.726636	0.337183	0.309884
H195	H	0.930203	-0.823916	-0.291669
H196	H	1.430203	-0.323916	0.208331
