data_functionalizedCrystal
_audit_creation_method	'MofGen! by Chris Wilmer'
_symmetry_space_group_name_H-M	'P1'
_symmetry_Int_Tables_number	1
_symmetry_cell_setting	triclinic
loop_
_symmetry_equiv_pos_as_xyz
  x,y,z
_cell_length_a	18.101397
_cell_length_b	11.169417
_cell_length_c	18.101389
_cell_angle_alpha	90.017479
_cell_angle_beta	89.978953
_cell_angle_gamma	89.981312
loop_
_atom_site_label
_atom_site_type_symbol
_atom_site_fract_x
_atom_site_fract_y
_atom_site_fract_z
Zn1	Zn	-0.294942	-1.834828	-0.418690
Zn2	Zn	-0.418768	-1.834697	-0.294843
Zn3	Zn	-0.294941	-1.634129	-0.294866
Zn4	Zn	-0.418743	-1.634086	-0.418646
O5	O	-0.356849	-1.734435	-0.356761
O6	O	-0.311379	-2.002761	-0.402270
O7	O	-0.402352	-1.808054	-0.191213
O8	O	-0.191308	-1.660825	-0.311319
O9	O	-0.402353	-2.002664	-0.311280
O10	O	-0.191309	-1.808278	-0.402292
O11	O	-0.311377	-1.660697	-0.191230
O12	O	-0.311352	-1.466174	-0.311277
O13	O	-0.402310	-1.660752	-0.522285
O14	O	-0.402309	-1.466142	-0.402218
O15	O	-0.311355	-1.808237	-0.522317
O16	O	-0.522398	-1.808013	-0.311237
O17	O	-0.522379	-1.660625	-0.402195
C18	C	-0.356828	-1.422610	-0.356746
C19	C	-0.356838	-1.289210	-0.356756
C20	C	-0.549259	-1.734332	-0.356725
C21	C	-0.631573	-1.734398	-0.356735
C22	C	-0.930664	-1.734552	-0.356802
C23	C	-0.899320	-1.827025	-0.299421
C24	C	-0.813701	-1.827346	-0.299569
C25	C	-0.782282	-1.734476	-0.356768
C26	C	-0.813303	-1.768761	-0.434828
C27	C	-0.898947	-1.769477	-0.434516
C28	C	-0.899167	-1.607545	-0.336799
C29	C	-0.813518	-1.608173	-0.335057
C30	C	-0.698422	-1.734431	-0.356754
C31	C	-1.014524	-1.734599	-0.356822
C32	C	-0.163687	-1.734571	-0.356813
C33	C	-0.081373	-1.734629	-0.356836
C34	C	-0.356830	-1.734504	-0.549923
C35	C	-0.356822	-1.734534	-0.632237
C36	C	-0.356862	-1.047477	-0.356772
C37	C	-0.356850	-1.180877	-0.356765
C38	C	-0.356683	-1.734604	-0.931328
C39	C	-0.413728	-1.641491	-0.899983
C40	C	-0.413992	-1.641743	-0.814365
C41	C	-0.356752	-1.734568	-0.782946
C42	C	-0.377938	-1.861024	-0.814041
C43	C	-0.378313	-1.860505	-0.899686
C44	C	-0.278325	-1.702360	-0.899759
C45	C	-0.278778	-1.699547	-0.814108
C46	C	-0.356790	-1.734556	-0.699086
C47	C	-0.356647	-1.734625	-1.015188
C48	C	-0.356814	-1.734435	-0.164351
C49	C	-0.356613	-1.734638	-0.082037
H50	H	-0.792730	-1.805896	-0.241689
H51	H	-0.920792	-1.920590	-0.312503
H52	H	-0.262801	-1.606486	-0.793784
H53	H	-0.920818	-1.576354	-0.280865
O54	O	-0.926166	-1.516216	-0.392046
H55	H	-0.961826	-1.560992	-0.433566
H56	H	-0.435594	-1.887837	-0.919665
O57	O	-0.786341	-1.682290	-0.492993
H58	H	-0.750456	-1.613799	-0.466818
O59	O	-0.490920	-1.669995	-0.787223
H60	H	-0.491380	-1.670261	-0.725907
H61	H	-0.400734	-1.547971	-0.793340
O62	O	-0.927238	-1.799683	-0.222633
H63	H	-0.963674	-1.719798	-0.224527
O64	O	-0.786483	-1.951960	-0.317100
H65	H	-0.834494	-2.012226	-0.325513
H66	H	-0.791800	-1.860558	-0.452059
O67	O	-0.925348	-1.892448	-0.456950
H68	H	-0.876945	-1.950846	-0.467917
O69	O	-0.222020	-1.792184	-0.926608
H70	H	-0.220010	-1.790568	-0.987886
H71	H	-0.919680	-1.705073	-0.478743
H72	H	-0.234020	-1.762415	-0.792721
O73	O	-0.396348	-1.516896	-0.927248
H74	H	-0.346870	-1.519998	-0.963437
H75	H	-0.793249	-1.582320	-0.277611
H76	H	-0.471455	-1.662569	-0.921504
O77	O	-0.252764	-1.582328	-0.928354
H78	H	-0.200426	-1.593890	-0.959520
H79	H	-0.338568	-1.932234	-0.920423
O80	O	-0.785196	-1.511987	-0.386357
H81	H	-0.802548	-1.532568	-0.443777
H82	H	-0.337695	-1.932264	-0.793692
O83	O	-0.453010	-1.897863	-0.785644
H84	H	-0.475351	-1.826319	-0.749394
