data_functionalizedCrystal
_audit_creation_method	'MofGen! by Chris Wilmer'
_symmetry_space_group_name_H-M	'P1'
_symmetry_Int_Tables_number	1
_symmetry_cell_setting	triclinic
loop_
_symmetry_equiv_pos_as_xyz
  x,y,z
_cell_length_a	14.560438
_cell_length_b	12.970454
_cell_length_c	12.970454
_cell_angle_alpha	59.999776
_cell_angle_beta	90.001163
_cell_angle_gamma	60.001474
loop_
_atom_site_label
_atom_site_type_symbol
_atom_site_fract_x
_atom_site_fract_y
_atom_site_fract_z
Zr1	Zr	0.884754	1.128537	-0.135289
O2	O	0.738109	1.343624	-0.299917
O3	O	0.929708	0.913447	-0.084821
O4	O	0.929710	1.128537	-0.299912
O5	O	0.738106	1.128536	0.084841
O6	O	1.080848	1.128540	-0.299909
O7	O	0.738107	1.128535	-0.084826
O8	O	1.080845	0.743784	0.084849
O9	O	0.738109	1.513292	-0.299917
O10	O	1.061674	1.001920	-0.063296
O11	O	0.948880	1.001919	0.063322
O12	O	0.948882	1.255159	-0.189920
O13	O	0.836088	1.255157	-0.063301
Zr14	Zr	1.125800	1.128543	0.135314
Zr15	Zr	1.125802	1.128542	-0.135285
Zr16	Zr	0.884752	1.128539	0.135309
Zr17	Zr	0.884754	1.399137	-0.135290
Zr18	Zr	1.125800	0.857943	0.135315
O19	O	1.080845	1.343633	0.084846
O20	O	1.080848	1.343631	-0.299910
O21	O	0.738106	1.343626	0.084840
O22	O	1.272445	0.913456	0.299941
O23	O	1.272447	0.913454	-0.084815
O24	O	0.929706	0.913450	0.299935
O25	O	1.272448	1.128545	-0.084816
O26	O	1.080844	1.128543	0.299937
O27	O	0.929706	1.128540	0.299934
O28	O	1.272446	1.128546	0.084850
O29	O	0.929710	1.513295	-0.299914
O30	O	1.080844	0.743785	0.299939
O31	O	1.272445	0.743789	0.299942
O32	O	1.272446	0.743788	0.084852
O33	O	0.738107	1.513293	-0.084828
O34	O	0.929708	1.513297	-0.084824
O35	O	1.061672	1.001921	0.189944
O36	O	1.174466	1.001923	0.063326
O37	O	1.061674	1.255162	-0.063297
O38	O	0.948880	1.255160	0.063321
C39	C	1.005277	0.790061	0.000014
C40	C	1.005277	0.675184	0.000015
C41	C	0.703762	1.128534	0.000007
C42	C	0.601431	1.128532	0.000005
C43	C	0.612229	0.996347	0.066101
C44	C	0.516074	0.996354	0.066112
C45	C	0.398327	1.260744	-0.066078
C46	C	0.494481	1.260735	-0.066081
C47	C	0.719180	0.864144	0.132187
C48	C	0.729982	0.731948	0.198288
C49	C	0.633827	0.731955	0.198299
C50	C	0.526870	0.864158	0.132210
C51	C	1.306791	1.128546	0.000018
C52	C	1.409122	1.128548	0.000020
C53	C	1.005279	1.128538	-0.338465
C54	C	1.005280	1.128538	-0.453341
C55	C	1.005277	1.467019	0.000011
C56	C	1.005277	1.581896	0.000010
C57	C	1.005275	1.128542	0.338490
C58	C	1.005274	1.128543	0.453366
C59	C	1.306791	0.790067	0.000020
C60	C	1.409122	0.675192	0.000022
C61	C	1.005275	0.790063	0.338492
C62	C	1.005274	0.675187	0.453368
C63	C	1.306789	0.790069	0.338497
C64	C	1.409119	0.675194	0.453376
C65	C	0.703765	1.467012	-0.338472
C66	C	0.601434	1.581886	-0.453351
C67	C	0.703763	1.467014	0.000005
C68	C	0.601431	1.581888	0.000003
C69	C	1.005279	1.467018	-0.338467
C70	C	1.005280	1.581894	-0.453344
C71	C	1.457179	0.527760	0.093499
C72	C	1.553320	0.419808	0.093506
C73	C	1.601408	0.459291	0.000039
C74	C	1.553343	0.606737	-0.093448
C75	C	1.457199	0.714686	-0.093458
C76	C	1.457183	0.527763	0.507323
C77	C	1.553344	0.419810	0.615252
C78	C	1.601435	0.459291	0.669236
C79	C	1.553367	0.606737	0.615278
C80	C	1.457213	0.714687	0.507347
C81	C	0.553379	1.729317	-0.507308
C82	C	0.457239	1.837270	-0.615261
C83	C	0.409152	1.797789	-0.669249
C84	C	0.457215	1.650343	-0.615286
C85	C	0.553358	1.542393	-0.507341
C86	C	0.553374	1.542360	0.093486
C87	C	0.457232	1.650283	0.093510
C88	C	0.409146	1.797732	0.000043
C89	C	0.457212	1.837259	-0.093445
C90	C	0.553356	1.729338	-0.093462
H91	H	0.797480	0.864124	0.132183
H92	H	0.418046	1.957326	-0.169541
F93	F	0.424535	0.864159	0.132236
H94	H	0.330866	1.885703	-0.757145
F95	F	0.306818	1.912577	0.000077
F96	F	1.604560	0.648734	0.672751
F97	F	0.604486	1.385485	-0.449920
H98	H	1.592511	0.638864	-0.169546
H99	H	0.592510	1.422307	0.169597
F100	F	1.406065	0.871595	0.449949
F101	F	0.284497	1.401433	-0.136412
F102	F	1.406061	0.871595	-0.192959
F103	F	1.406018	0.485712	0.449888
F104	F	0.645326	0.591263	0.268661
H105	H	0.418108	1.618070	0.169639
F106	F	0.406020	1.608345	-0.672755
F107	F	1.604481	0.262896	0.672662
H108	H	0.817071	0.624313	0.252103
F109	F	1.703772	0.344383	0.784109
F110	F	0.406101	1.994184	-0.672669
F111	F	0.604487	1.771430	-0.192972
H112	H	0.485685	1.368372	-0.119878
F113	F	1.406016	0.485707	0.192986
F114	F	1.604459	0.262894	0.193014
F115	F	1.703735	0.344384	0.000067
F116	F	0.604541	1.771369	-0.449871
