data_functionalizedCrystal
_audit_creation_method	'MofGen! by Chris Wilmer'
_symmetry_space_group_name_H-M	'P1'
_symmetry_Int_Tables_number	1
_symmetry_cell_setting	triclinic
loop_
_symmetry_equiv_pos_as_xyz
  x,y,z
_cell_length_a	29.839134
_cell_length_b	17.077402
_cell_length_c	17.077396
_cell_angle_alpha	89.970216
_cell_angle_beta	90.029325
_cell_angle_gamma	89.982256
loop_
_atom_site_label
_atom_site_type_symbol
_atom_site_fract_x
_atom_site_fract_y
_atom_site_fract_z
Zn1	Zn	0.686810	0.312616	0.444041
Zn2	Zn	1.186810	0.812616	0.944041
Zn3	Zn	0.686757	0.443891	0.312772
Zn4	Zn	1.186757	0.943891	0.812772
Zn5	Zn	0.611683	0.312631	0.312767
Zn6	Zn	1.111683	0.812631	0.812767
Zn7	Zn	0.611665	0.443832	0.443973
Zn8	Zn	1.111665	0.943832	0.943973
O9	O	0.649229	0.378242	0.378388
O10	O	1.149229	0.878242	0.878388
O11	O	0.749670	0.330048	0.426659
O12	O	1.249670	0.830048	0.926659
O13	O	0.676784	0.426510	0.202925
O14	O	1.176784	0.926510	0.702925
O15	O	0.621679	0.202782	0.330207
O16	O	1.121679	0.702782	0.830207
O17	O	0.749631	0.426495	0.330216
O18	O	1.249631	0.926495	0.830216
O19	O	0.676874	0.202771	0.426654
O20	O	1.176874	0.702771	0.926654
O21	O	0.621627	0.330074	0.202921
O22	O	1.121627	0.830074	0.702921
O23	O	0.548814	0.330017	0.330141
O24	O	1.048814	0.830017	0.830141
O25	O	0.621648	0.426395	0.553829
O26	O	1.121648	0.926395	1.053829
O27	O	0.548800	0.426409	0.426538
O28	O	1.048800	0.926409	0.926538
O29	O	0.676857	0.329991	0.553879
O30	O	1.176857	0.829991	1.053879
O31	O	0.676766	0.553730	0.330150
O32	O	1.176766	1.053730	0.830150
O33	O	0.621596	0.553686	0.426543
O34	O	1.121596	1.053686	0.926543
C35	C	0.532506	0.378209	0.378332
C36	C	1.032506	0.878209	0.878332
C37	C	0.482572	0.378214	0.378326
C38	C	0.982572	0.878214	0.878326
C39	C	0.649185	0.582190	0.378357
C40	C	1.149185	1.082190	0.878357
C41	C	0.649208	0.669440	0.378370
C42	C	1.149208	1.169440	0.878370
C43	C	0.649256	0.378184	0.583133
C44	C	1.149256	0.878184	1.083133
C45	C	0.649268	0.378160	0.670383
C46	C	1.149268	0.878160	1.170383
C47	C	0.172931	0.428508	0.428521
C48	C	0.672931	0.928508	0.928521
C49	C	-0.014742	0.428530	0.428556
C50	C	0.485258	0.928530	0.928556
O51	O	-0.039005	0.471255	0.471199
O52	O	0.460995	0.971255	0.971199
N53	N	-0.038213	0.378271	0.378448
N54	N	0.461787	0.878271	0.878448
C55	C	-0.014763	0.327999	0.328331
C56	C	0.485237	0.827999	0.828331
O57	O	-0.039033	0.285245	0.285717
O58	O	0.460967	0.785245	0.785717
C59	C	0.172909	0.327974	0.328300
C60	C	0.672909	0.827974	0.828300
C61	C	0.196378	0.378242	0.378406
C62	C	0.696378	0.878242	0.878406
C63	C	0.196400	0.478771	0.478623
C64	C	0.696400	0.978771	0.978623
C65	C	0.243315	0.478768	0.478611
C66	C	0.743315	0.978768	0.978611
C67	C	0.266762	0.428502	0.428496
C68	C	0.766762	0.928502	0.928496
C69	C	0.243293	0.378239	0.378394
C70	C	0.743293	0.878239	0.878394
C71	C	0.196358	0.277698	0.278188
C72	C	0.696358	0.777698	0.778188
C73	C	0.243279	0.277695	0.278186
C74	C	0.743279	0.777695	0.778186
C75	C	0.266748	0.327963	0.328292
C76	C	0.766748	0.827963	0.828292
C77	C	0.313655	0.327969	0.328267
C78	C	0.813655	0.827969	0.828267
N79	N	0.337126	0.378228	0.378375
N80	N	0.837126	0.878228	0.878375
C81	C	0.313680	0.428495	0.428490
C82	C	0.813680	0.928495	0.928490
C83	C	-0.113294	0.328017	0.328349
C84	C	0.386706	0.828017	0.828349
C85	C	-0.160212	0.328024	0.328356
C86	C	0.339788	0.828024	0.828356
C87	C	-0.160187	0.428555	0.428582
C88	C	0.339813	0.928555	0.928582
C89	C	-0.113269	0.428551	0.428571
C90	C	0.386731	0.928551	0.928571
C91	C	-0.089823	0.378276	0.378457
C92	C	0.410177	0.878276	0.878457
C93	C	0.412205	0.428485	0.428460
C94	C	0.912205	0.928485	0.928460
C95	C	0.459125	0.428480	0.428441
C96	C	0.959125	0.928480	0.928441
C97	C	0.459097	0.327947	0.328218
C98	C	0.959097	0.827947	0.828218
C99	C	0.412181	0.327955	0.328234
C100	C	0.912181	0.827955	0.828234
C101	C	0.388737	0.378227	0.378361
C102	C	0.888737	0.878227	0.878361
O103	O	0.337947	0.285260	0.285652
O104	O	0.837947	0.785260	0.785652
O105	O	0.337958	0.471230	0.471109
O106	O	0.837958	0.971230	0.971109
C107	C	0.126015	0.428511	0.428533
C108	C	0.626015	0.928511	0.928533
C109	C	0.102547	0.378248	0.378431
C110	C	0.602547	0.878248	0.878431
C111	C	0.125993	0.327981	0.328316
C112	C	0.625993	0.827981	0.828316
C113	C	0.055629	0.378255	0.378437
C114	C	0.555629	0.878255	0.878437
C115	C	0.032182	0.428521	0.428552
C116	C	0.532182	0.928521	0.928552
C117	C	0.055653	0.478781	0.478660
C118	C	0.555653	0.978781	0.978660
C119	C	0.102569	0.478778	0.478648
C120	C	0.602569	0.978778	0.978648
C121	C	0.102522	0.277722	0.278208
C122	C	0.602522	0.777722	0.778208
C123	C	0.055607	0.277730	0.278224
C124	C	0.555607	0.777730	0.778224
C125	C	0.032160	0.327996	0.328338
C126	C	0.532160	0.827996	0.828338
C127	C	0.766407	0.378276	0.378446
C128	C	1.266407	0.878276	0.878446
C129	C	0.816342	0.378291	0.378470
C130	C	1.316342	0.878291	0.878470
C131	C	0.649285	0.173498	0.378437
C132	C	1.149285	0.673498	0.878437
C133	C	0.649308	0.086248	0.378458
C134	C	1.149308	0.586248	0.878458
C135	C	0.677964	0.710426	0.328232
C136	C	1.177964	1.210426	0.828232
C137	C	0.677986	0.792407	0.328252
C138	C	1.177986	1.292407	0.828252
C139	C	0.649249	0.833399	0.378407
C140	C	1.149249	1.333399	0.878407
C141	C	0.620492	0.792407	0.428550
C142	C	1.120492	1.292407	0.928550
C143	C	0.620472	0.710428	0.428533
C144	C	1.120472	1.210428	0.928533
C145	C	0.620533	0.963277	0.428580
C146	C	1.120533	1.463277	0.928580
C147	C	0.620552	1.045261	0.428596
C148	C	1.120552	1.545261	0.928596
C149	C	0.678047	1.045256	0.328299
C150	C	1.178047	1.545256	0.828299
C151	C	0.678028	0.963277	0.328282
C152	C	1.178028	1.463277	0.828282
C153	C	0.649270	0.922290	0.378425
C154	C	1.149270	1.422290	0.878425
C155	C	0.649228	0.378243	0.174441
C156	C	1.149228	0.878243	0.674441
C157	C	0.649303	0.378047	0.087191
C158	C	1.149303	0.878047	0.587191
C159	C	0.678016	0.327958	0.711400
C160	C	1.178016	0.827958	1.211400
C161	C	0.678021	0.327932	0.793381
C162	C	1.178021	0.827932	1.293381
C163	C	0.649280	0.378112	0.834342
C164	C	1.149280	0.878112	1.334342
C165	C	0.620529	0.428316	0.793319
C166	C	1.120529	0.928316	1.293319
C167	C	0.620522	0.428337	0.711340
C168	C	1.120522	0.928337	1.211340
C169	C	0.620547	0.428269	0.964189
C170	C	1.120547	0.928269	1.464189
C171	C	0.620555	0.428248	1.046174
C172	C	1.120555	0.928248	1.546174
C173	C	0.678047	0.327863	1.046230
C174	C	1.178047	0.827863	1.546230
C175	C	0.678039	0.327885	0.964251
C176	C	1.178039	0.827885	1.464251
C177	C	0.649288	0.378090	0.923233
C178	C	1.149288	0.878090	1.423233
H179	H	0.393123	0.469419	0.469280
H180	H	0.893123	0.969419	0.969280
C181	C	0.238612	0.578128	0.577685
C182	C	0.738612	1.078128	1.077685
C183	C	0.269108	0.534017	0.533698
C184	C	0.769108	1.034017	1.033698
H185	H	0.254534	0.612232	0.611700
H186	H	0.754534	1.112232	1.111700
H187	H	0.220299	0.608112	0.543432
H188	H	0.720299	1.108112	1.043432
H189	H	0.220326	0.543953	0.607766
H190	H	0.720326	1.043953	1.107766
H191	H	0.287392	0.568192	0.503613
H192	H	0.787392	1.068192	1.003613
H193	H	0.287429	0.504031	0.567956
H194	H	0.787429	1.004031	1.067956
H195	H	0.177258	0.236767	0.237384
H196	H	0.677258	0.736767	0.737384
C197	C	0.598612	0.561263	0.686041
C198	C	1.098612	1.061263	1.186041
C199	C	0.588928	0.483528	0.666243
C200	C	1.088928	0.983528	1.166243
H201	H	0.579109	0.595335	0.658195
H202	H	1.079109	1.095335	1.158195
H203	H	0.594497	0.568429	0.740719
H204	H	1.094497	1.068429	1.240719
H205	H	0.628795	0.572745	0.672624
H206	H	1.128795	1.072745	1.172624
H207	H	0.558746	0.472044	0.679666
H208	H	1.058746	0.972044	1.179666
H209	H	0.593039	0.476358	0.611554
H210	H	1.093039	0.976358	1.111554
H211	H	0.597057	0.677057	0.469362
H212	H	1.097057	1.177057	0.969362
H213	H	0.701465	1.078631	0.287473
H214	H	1.201465	1.578631	0.787473
C215	C	0.734879	0.228641	1.038047
C216	C	1.234879	0.728641	1.538047
C217	C	0.709650	0.272674	1.091312
C218	C	1.209650	0.772674	1.591312
H219	H	0.754392	0.194578	1.065882
H220	H	1.254392	0.694578	1.565882
H221	H	0.715312	0.198617	1.006068
H222	H	1.215312	0.698617	1.506068
H223	H	0.752048	0.262868	1.006074
H224	H	1.252048	0.762868	1.506074
H225	H	0.692478	0.238448	1.123281
H226	H	1.192478	0.738448	1.623281
H227	H	0.729219	0.302700	1.123304
H228	H	1.229219	0.802700	1.623304
H229	H	0.701422	0.287098	0.678055
H230	H	1.201422	0.787098	1.178055
C231	C	0.143679	0.489840	0.584217
C232	C	0.643679	0.989840	1.084217
C233	C	0.170633	0.534033	0.533715
C234	C	0.670633	1.034033	1.033715
H235	H	0.127777	0.523964	0.618229
H236	H	0.627777	1.023964	1.118229
H237	H	0.122983	0.459921	0.554383
H238	H	0.622983	0.959921	1.054383
H239	H	0.162000	0.455674	0.614297
H240	H	0.662000	0.955674	1.114297
H241	H	0.152311	0.568196	0.503630
H242	H	0.652311	1.068196	1.003630
H243	H	0.191331	0.563966	0.563551
H244	H	0.691331	1.063966	1.063551
C245	C	0.155241	0.266679	0.172620
C246	C	0.655241	0.766679	0.672620
C247	C	0.128291	0.222469	0.223113
C248	C	0.628291	0.722469	0.723113
H249	H	0.171150	0.232566	0.138605
H250	H	0.671150	0.732566	0.638605
H251	H	0.136920	0.300840	0.142547
H252	H	0.636920	0.800840	0.642547
H253	H	0.175936	0.296603	0.202465
H254	H	0.675936	0.796603	0.702465
H255	H	0.107594	0.192549	0.193268
H256	H	0.607594	0.692549	0.693268
H257	H	0.146614	0.188294	0.253189
H258	H	0.646614	0.688294	0.753189
C259	C	-0.174678	0.289623	0.195499
C260	C	0.325322	0.789623	0.695499
C261	C	-0.186000	0.272774	0.273263
C262	C	0.314000	0.772774	0.773263
H263	H	-0.190594	0.255507	0.161488
H264	H	0.309406	0.755507	0.661488
H265	H	-0.182385	0.342343	0.183923
H266	H	0.317615	0.842343	0.683923
H267	H	-0.143377	0.282434	0.188345
H268	H	0.356623	0.782434	0.688345
H269	H	-0.217300	0.279969	0.280419
H270	H	0.282700	0.779969	0.780419
H271	H	-0.178296	0.220042	0.284843
H272	H	0.321704	0.720042	0.784843
H273	H	0.597160	1.078635	0.469451
H274	H	1.097160	1.578635	0.969451
C275	C	0.598623	0.561149	1.071383
C276	C	1.098623	1.061149	1.571383
C277	C	0.588959	0.483397	1.091206
C278	C	1.088959	0.983397	1.591206
H279	H	0.579115	0.595192	1.099183
H280	H	1.079115	1.095192	1.599183
H281	H	0.628802	0.572644	1.084833
H282	H	1.128802	1.072644	1.584833
H283	H	0.594498	0.568342	1.016689
H284	H	1.094498	1.068342	1.516689
H285	H	0.593087	0.476202	1.145899
H286	H	1.093087	0.976202	1.645899
H287	H	0.558773	0.471898	1.077761
H288	H	1.058773	0.971898	1.577761
C289	C	-0.155462	0.527923	0.527662
C290	C	0.344538	1.027923	1.027662
C291	C	-0.185965	0.483806	0.483673
C292	C	0.314035	0.983806	0.983673
H293	H	-0.171379	0.562030	0.561669
H294	H	0.328621	1.062030	1.061669
H295	H	-0.137148	0.493757	0.557742
H296	H	0.362852	0.993757	1.057742
H297	H	-0.137178	0.557911	0.493403
H298	H	0.362822	1.057911	0.993403
H299	H	-0.204248	0.453814	0.517932
H300	H	0.295752	0.953814	1.017932
H301	H	-0.204287	0.517976	0.453590
H302	H	0.295713	1.017976	0.953590
H303	H	0.701363	0.677056	0.287387
H304	H	1.201363	1.177056	0.787387
H305	H	0.597096	0.825789	0.469390
H306	H	1.097096	1.325789	0.969390
H307	H	-0.094164	0.469482	0.469373
H308	H	0.405836	0.969482	0.969373
H309	H	0.701432	0.287055	0.826773
H310	H	1.201432	0.787055	1.326773
C311	C	-0.060572	0.316961	0.222762
C312	C	0.439428	0.816961	0.722762
C313	C	-0.087525	0.272756	0.273254
C314	C	0.412475	0.772756	0.773254
H315	H	-0.044663	0.282845	0.188750
H316	H	0.455337	0.782845	0.688750
H317	H	-0.078890	0.351125	0.192687
H318	H	0.421110	0.851125	0.692687
H319	H	-0.039876	0.346883	0.252609
H320	H	0.460124	0.846883	0.752609
H321	H	-0.108223	0.242838	0.243407
H322	H	0.391777	0.742838	0.743407
H323	H	-0.069206	0.238579	0.303332
H324	H	0.430794	0.738579	0.803332
C325	C	0.560097	0.439204	0.871966
C326	C	1.060097	0.939204	1.371966
C327	C	0.588944	0.483462	0.919110
C328	C	1.088944	0.983462	1.419110
H329	H	0.540587	0.473283	0.844143
H330	H	1.040587	0.973283	1.344143
H331	H	0.577210	0.409331	0.835837
H332	H	1.077210	0.909331	1.335837
H333	H	0.542926	0.404991	0.903951
H334	H	1.042926	0.904991	1.403951
H335	H	0.606118	0.517671	0.887124
H336	H	1.106118	1.017671	1.387124
H337	H	0.571830	0.513349	0.955243
H338	H	1.071830	1.013349	1.455243
C339	C	0.734809	0.784167	0.229102
C340	C	1.234809	1.284167	0.729102
C341	C	0.709593	0.837459	0.273134
C342	C	1.209593	1.337459	0.773134
H343	H	0.754320	0.811982	0.195071
H344	H	1.254320	1.311982	0.695071
H345	H	0.751975	0.752147	0.263326
H346	H	1.251975	1.252147	0.763326
H347	H	0.715230	0.752238	0.199038
H348	H	1.215230	1.252238	0.699038
H349	H	0.729172	0.869385	0.303203
H350	H	1.229172	1.369385	0.803203
H351	H	0.692426	0.869493	0.238906
H352	H	1.192426	1.369493	0.738906
C353	C	0.563703	0.971513	0.527725
C354	C	1.063703	1.471513	1.027725
C355	C	0.588924	0.918223	0.483701
C356	C	1.088924	1.418223	0.983701
H357	H	0.544188	0.943696	0.561749
H358	H	1.044188	1.443696	1.061749
H359	H	0.583275	1.003441	0.557791
H360	H	1.083275	1.503441	1.057791
H361	H	0.546537	1.003534	0.493490
H362	H	1.046537	1.503534	0.993490
H363	H	0.606093	0.886205	0.517935
H364	H	1.106093	1.386205	1.017935
H365	H	0.569350	0.886281	0.453633
H366	H	1.069350	1.386281	0.953633
H367	H	0.597126	0.469170	0.826676
H368	H	1.097126	0.969170	1.326676
H369	H	0.036555	0.519712	0.519463
H370	H	0.536555	1.019712	1.019463
C371	C	0.473612	0.466883	0.561294
C372	C	0.973612	0.966883	1.061294
C373	C	0.484922	0.483734	0.483525
C374	C	0.984922	0.983734	0.983525
H375	H	0.489539	0.500990	0.595299
H376	H	0.989539	1.000990	1.095299
H377	H	0.442317	0.474079	0.568465
H378	H	0.942317	0.974079	1.068465
H379	H	0.481317	0.414154	0.572863
H380	H	0.981317	0.914154	1.072863
H381	H	0.477214	0.536462	0.471954
H382	H	0.977214	1.036462	0.971954
H383	H	0.516224	0.476544	0.476350
H384	H	1.016224	0.976544	0.976350
C385	C	0.238539	0.178326	0.179115
C386	C	0.738539	0.678326	0.679115
C387	C	0.269050	0.222438	0.223091
C388	C	0.769050	0.722438	0.723091
H389	H	0.254449	0.144220	0.145097
H390	H	0.754449	0.644220	0.645097
H391	H	0.220259	0.148345	0.213375
H392	H	0.720259	0.648345	0.713375
H393	H	0.220220	0.212501	0.149038
H394	H	0.720220	0.712501	0.649038
H395	H	0.287366	0.188263	0.253172
H396	H	0.787366	0.688263	0.753172
H397	H	0.287337	0.252421	0.188826
H398	H	0.787337	0.752421	0.688826
H399	H	0.393072	0.287024	0.287432
H400	H	0.893072	0.787024	0.787432
C401	C	0.531012	0.283305	0.283721
C402	C	1.031012	0.783305	0.783721
C403	C	0.484876	0.272691	0.273138
C404	C	0.984876	0.772691	0.773138
H405	H	0.546927	0.249185	0.249722
H406	H	1.046927	0.749185	0.749722
H407	H	0.538686	0.336024	0.272129
H408	H	1.038686	0.836024	0.772129
H409	H	0.538713	0.271890	0.336487
H410	H	1.038713	0.771890	0.836487
H411	H	0.477174	0.284112	0.220372
H412	H	0.977174	0.784112	0.720372
H413	H	0.477199	0.219960	0.284724
H414	H	0.977199	0.719960	0.784724
H415	H	0.121673	0.519711	0.519449
H416	H	0.621673	1.019711	1.019449
C417	C	0.738455	0.317005	0.872075
C418	C	1.238455	0.817005	1.372075
C419	C	0.709623	0.272719	0.919215
C420	C	1.209623	0.772719	1.419215
H421	H	0.757951	0.282942	0.844274
H422	H	1.257951	0.782942	1.344274
H423	H	0.721331	0.346909	0.835927
H424	H	1.221331	0.846909	1.335927
H425	H	0.755642	0.351189	0.904061
H426	H	1.255642	0.851189	1.404061
H427	H	0.692433	0.238538	0.887229
H428	H	1.192433	0.738538	1.387229
H429	H	0.726749	0.242801	0.955367
H430	H	1.226749	0.742801	1.455367
C431	C	0.041137	0.239315	0.145366
C432	C	0.541137	0.739315	0.645366
C433	C	0.029820	0.222469	0.223133
C434	C	0.529820	0.722469	0.723133
H435	H	0.025222	0.205192	0.111359
H436	H	0.525222	0.705192	0.611359
H437	H	0.033427	0.292032	0.133787
H438	H	0.533427	0.792032	0.633787
H439	H	0.072438	0.232130	0.138209
H440	H	0.572438	0.732130	0.638209
H441	H	-0.001481	0.229659	0.230291
H442	H	0.498519	0.729659	0.730291
H443	H	0.037527	0.169739	0.234716
H444	H	0.537527	0.669739	0.734716
H445	H	0.701425	0.929901	0.287439
H446	H	1.201425	1.429901	0.787439
