data_functionalizedCrystal
_audit_creation_method	'MofGen! by Chris Wilmer'
_symmetry_space_group_name_H-M	'P1'
_symmetry_Int_Tables_number	1
_symmetry_cell_setting	triclinic
loop_
_symmetry_equiv_pos_as_xyz
  x,y,z
_cell_length_a	14.519709
_cell_length_b	12.996460
_cell_length_c	11.792241
_cell_angle_alpha	90.006284
_cell_angle_beta	83.936780
_cell_angle_gamma	89.999966
loop_
_atom_site_label
_atom_site_type_symbol
_atom_site_fract_x
_atom_site_fract_y
_atom_site_fract_z
O1	O	1.224413	0.085433	0.148782
O2	O	1.557747	0.418767	0.482116
O3	O	1.891080	0.752100	0.815449
O4	O	0.956001	0.085465	0.166303
O5	O	1.289334	0.418798	0.499637
O6	O	1.622667	0.752131	0.832970
O7	O	1.096721	0.085441	-0.007664
O8	O	1.430054	0.418774	0.325669
O9	O	1.763387	0.752108	0.659003
O10	O	1.083693	0.085457	0.322749
O11	O	1.417027	0.418790	0.656083
O12	O	1.750360	0.752124	0.989416
O13	O	1.096706	-0.085693	-0.007674
O14	O	1.430039	0.247640	0.325660
O15	O	1.763372	0.580974	0.658993
O16	O	0.955986	-0.085669	0.166294
O17	O	1.289319	0.247664	0.499627
O18	O	1.622652	0.580998	0.832960
O19	O	1.224399	-0.085701	0.148773
O20	O	1.557732	0.247633	0.482106
O21	O	1.891065	0.580966	0.815439
Cu22	Cu	1.090191	-0.101311	0.157532
Cu23	Cu	1.423524	0.232023	0.490866
Cu24	Cu	1.756857	0.565356	0.824199
Cu25	Cu	1.090208	0.101075	0.157544
Cu26	Cu	1.423542	0.434408	0.490877
Cu27	Cu	1.756875	0.767741	0.824210
O28	O	1.083678	-0.085677	0.322740
O29	O	1.417012	0.247656	0.656073
O30	O	1.750345	0.580990	0.989406
C31	C	0.921630	-0.000098	0.165482
C32	C	1.254964	0.333235	0.498815
C33	C	1.588297	0.666568	0.832148
C34	C	0.819240	-0.000086	0.163035
C35	C	1.152573	0.333247	0.496368
C36	C	1.485907	0.666580	0.829702
N37	N	1.090185	-0.243658	0.157524
N38	N	1.423519	0.089676	0.490857
N39	N	1.756852	0.423009	0.824190
C40	C	0.444311	-0.000134	0.154027
C41	C	0.777645	0.333200	0.487360
C42	C	1.110978	0.666533	0.820694
C43	C	0.548628	-0.000120	0.156528
C44	C	0.881962	0.333213	0.489862
C45	C	1.215295	0.666547	0.823195
C46	C	0.631772	-0.000109	0.158531
C47	C	0.965106	0.333224	0.491864
C48	C	1.298439	0.666558	0.825197
C49	C	0.736096	-0.000098	0.161033
C50	C	1.069429	0.333236	0.494366
C51	C	1.402763	0.666569	0.827699
C52	C	1.090207	-0.663472	0.157545
C53	C	1.423540	-0.330139	0.490878
C54	C	1.756874	0.003195	0.824211
C55	C	1.090198	-0.546667	0.157543
C56	C	1.423532	-0.213334	0.490876
C57	C	1.756865	0.120000	0.824209
C58	C	1.090197	-0.453569	0.157535
C59	C	1.423530	-0.120235	0.490868
C60	C	1.756863	0.213098	0.824202
C61	C	1.090187	-0.336756	0.157531
C62	C	1.423520	-0.003423	0.490865
C63	C	1.756854	0.329911	0.824198
C64	C	1.258769	-0.000135	0.149594
C65	C	1.592102	0.333198	0.482927
C66	C	1.925435	0.666531	0.816261
C67	C	1.361159	-0.000141	0.152041
C68	C	1.694492	0.333193	0.485374
C69	C	2.027826	0.666526	0.818708
N70	N	1.090221	0.243422	0.157543
N71	N	1.423554	0.576755	0.490877
N72	N	1.756888	0.910089	0.824210
C73	C	1.095895	-0.000126	-0.049955
C74	C	1.429228	0.333208	0.283378
C75	C	1.762562	0.666541	0.616712
C76	C	1.093446	-0.000124	-0.175955
C77	C	1.426779	0.333209	0.157378
C78	C	1.760112	0.666542	0.490711
C79	C	1.088942	-0.000106	-0.406642
C80	C	1.422275	0.333227	-0.073309
C81	C	1.755608	0.666560	0.260024
C82	C	1.091444	-0.000116	-0.278271
C83	C	1.424777	0.333217	0.055062
C84	C	1.758111	0.666551	0.388396
C85	C	1.084504	-0.000108	0.365031
C86	C	1.417838	0.333225	0.698364
C87	C	1.751171	0.666559	1.031698
C88	C	1.086954	-0.000103	0.491031
C89	C	1.420287	0.333231	0.824364
C90	C	1.753620	0.666564	1.157698
