data_functionalizedCrystal
_audit_creation_method	'MofGen! by Chris Wilmer'
_symmetry_space_group_name_H-M	'P1'
_symmetry_Int_Tables_number	1
_symmetry_cell_setting	triclinic
loop_
_symmetry_equiv_pos_as_xyz
  x,y,z
_cell_length_a	13.897448
_cell_length_b	12.827893
_cell_length_c	12.827885
_cell_angle_alpha	90.019272
_cell_angle_beta	90.032276
_cell_angle_gamma	90.017853
loop_
_atom_site_label
_atom_site_type_symbol
_atom_site_fract_x
_atom_site_fract_y
_atom_site_fract_z
Zn1	Zn	-0.383964	1.597653	0.590831
Zn2	Zn	-0.050631	1.930986	0.924164
Zn3	Zn	0.282703	2.264320	1.257497
Zn4	Zn	-0.545290	1.597540	0.416083
Zn5	Zn	-0.211957	1.930873	0.749417
Zn6	Zn	0.121376	2.264207	1.082750
Zn7	Zn	-0.384012	1.422894	0.416104
Zn8	Zn	-0.050678	1.756228	0.749438
Zn9	Zn	0.282655	2.089561	1.082771
Zn10	Zn	-0.545219	1.422873	0.590783
Zn11	Zn	-0.211886	1.756206	0.924117
Zn12	Zn	0.121447	2.089539	1.257450
O13	O	-0.464621	1.510240	0.503450
O14	O	-0.131288	1.843573	0.836784
O15	O	0.202045	2.176907	1.170117
O16	O	-0.405374	1.743874	0.567661
O17	O	-0.072041	2.077207	0.900994
O18	O	0.261292	2.410541	1.234328
O19	O	-0.523946	1.574335	0.269850
O20	O	-0.190613	1.907668	0.603183
O21	O	0.142721	2.241001	0.936517
O22	O	-0.249024	1.446133	0.439311
O23	O	0.084310	1.779466	0.772644
O24	O	0.417643	2.112799	1.105977
O25	O	-0.523900	1.743791	0.439275
O26	O	-0.190567	2.077124	0.772608
O27	O	0.142767	2.410458	1.105942
O28	O	-0.248989	1.574527	0.567681
O29	O	0.084345	1.907860	0.901015
O30	O	0.417678	2.241194	1.234348
O31	O	-0.405455	1.446023	0.269865
O32	O	-0.072122	1.779357	0.603199
O33	O	0.261211	2.112690	0.936532
O34	O	-0.405386	1.276655	0.439265
O35	O	-0.072053	1.609989	0.772598
O36	O	0.261281	1.943322	1.105931
O37	O	-0.523779	1.446096	0.737026
O38	O	-0.190445	1.779429	1.070359
O39	O	0.142888	2.112762	1.403692
O40	O	-0.523825	1.276639	0.567601
O41	O	-0.190491	1.609973	0.900934
O42	O	0.142842	1.943306	1.234267
O43	O	-0.405305	1.574506	0.737060
O44	O	-0.071972	1.907839	1.070394
O45	O	0.261361	2.241173	1.403727
O46	O	-0.680263	1.574314	0.439229
O47	O	-0.346929	1.907647	0.772562
O48	O	-0.013596	2.240980	1.105896
O49	O	-0.680210	1.445986	0.567580
O50	O	-0.346877	1.779320	0.900914
O51	O	-0.013544	2.112653	1.234247
C52	C	-0.464604	1.238730	0.503430
C53	C	-0.131270	1.572063	0.836764
C54	C	0.202063	1.905397	1.170097
C55	C	-0.464619	1.122577	0.503447
C56	C	-0.131286	1.455910	0.836780
C57	C	0.202047	1.789244	1.170113
C58	C	-0.406073	1.070833	0.567075
C59	C	-0.072740	1.404166	0.900409
C60	C	0.260594	1.737500	1.233742
C61	C	-0.406088	0.950783	0.567093
C62	C	-0.072754	1.284116	0.900427
C63	C	0.260579	1.617449	1.233760
C64	C	-0.715236	1.510164	0.503420
C65	C	-0.381902	1.843497	0.836753
C66	C	-0.048569	2.176830	1.170087
C67	C	-0.822450	1.510227	0.503442
C68	C	-0.489116	1.843560	0.836775
C69	C	-0.155783	2.176893	1.170109
C70	C	-1.018745	1.510336	0.503508
C71	C	-0.685411	1.843670	0.836841
C72	C	-0.352078	2.177003	1.170174
C73	C	-0.909512	1.510272	0.503474
C74	C	-0.576179	1.843606	0.836808
C75	C	-0.242846	2.176939	1.170141
C76	C	-0.213028	1.510345	0.503504
C77	C	0.120305	1.843678	0.836837
C78	C	0.453638	2.177012	1.170170
C79	C	-0.105814	1.510390	0.503526
C80	C	0.227519	1.843723	0.836860
C81	C	0.560852	2.177056	1.170193
C82	C	-0.464529	1.510311	0.776021
C83	C	-0.131195	1.843644	1.109354
C84	C	0.202138	2.176978	1.442687
C85	C	-0.464489	1.510341	0.892174
C86	C	-0.131156	1.843675	1.225507
C87	C	0.202177	2.177008	1.558841
C88	C	-0.464640	1.782810	0.503471
C89	C	-0.131307	2.116143	0.836804
C90	C	0.202027	2.449477	1.170138
C91	C	-0.464648	1.898963	0.503480
C92	C	-0.131314	2.232296	0.836813
C93	C	0.202019	2.565630	1.170146
C94	C	-0.464644	1.510229	0.231940
C95	C	-0.131311	1.843563	0.565274
C96	C	0.202023	2.176896	0.898607
C97	C	-0.464412	1.510401	0.115788
C98	C	-0.131078	1.843735	0.449121
C99	C	0.202255	2.177068	0.782454
C100	C	-0.405853	1.573890	0.943976
C101	C	-0.072520	1.907223	1.277309
C102	C	0.260813	2.240556	1.610642
C103	C	-0.405811	1.573923	1.064026
C104	C	-0.072478	1.907256	1.397360
C105	C	0.260855	2.240589	1.730693
H106	H	-0.514779	0.943455	0.449008
H107	H	-0.181446	1.276788	0.782341
H108	H	0.151887	1.610122	1.115675
H109	H	-0.514618	1.455996	1.071246
H110	H	-0.181285	1.789330	1.404579
H111	H	0.152048	2.122663	1.737913
F112	F	-0.340256	1.644952	0.885781
F113	F	-0.006923	1.978286	1.219114
F114	F	0.326410	2.311619	1.552448
F115	F	-0.530146	1.064317	0.432254
F116	F	-0.196813	1.397651	0.765587
F117	F	0.136520	1.730984	1.098921
F118	F	-0.340538	1.129093	0.638260
F119	F	-0.007205	1.462426	0.971593
F120	F	0.326129	1.795759	1.304926
F121	F	-0.340575	0.892624	0.638304
F122	F	-0.007241	1.225957	0.971637
F123	F	0.326092	1.559290	1.304971
H124	H	-0.355614	1.628332	1.108575
H125	H	-0.022281	1.961666	1.441908
H126	H	0.311053	2.294999	1.775241
H127	H	-0.514652	1.455953	0.936701
H128	H	-0.181319	1.789286	1.270034
H129	H	0.152015	2.122619	1.603368
