data_functionalizedCrystal
_audit_creation_method	'MofGen! by Chris Wilmer'
_symmetry_space_group_name_H-M	'P1'
_symmetry_Int_Tables_number	1
_symmetry_cell_setting	triclinic
loop_
_symmetry_equiv_pos_as_xyz
  x,y,z
_cell_length_a	18.101398
_cell_length_b	18.101395
_cell_length_c	11.169409
_cell_angle_alpha	89.964326
_cell_angle_beta	89.971502
_cell_angle_gamma	90.026371
loop_
_atom_site_label
_atom_site_type_symbol
_atom_site_fract_x
_atom_site_fract_y
_atom_site_fract_z
Zn1	Zn	1.132152	-0.294863	-0.678792
Zn2	Zn	1.132038	-0.418729	-0.478098
Zn3	Zn	1.008301	-0.294896	-0.478096
Zn4	Zn	1.008261	-0.418657	-0.678712
O5	O	1.070188	-0.356786	-0.578425
O6	O	1.235769	-0.311311	-0.652204
O7	O	1.115594	-0.402347	-0.310148
O8	O	1.024795	-0.191259	-0.504752
O9	O	1.235686	-0.402315	-0.504754
O10	O	1.115787	-0.191235	-0.652203
O11	O	1.024685	-0.311367	-0.310147
O12	O	0.904663	-0.311297	-0.504674
O13	O	1.024726	-0.402191	-0.846673
O14	O	0.904634	-0.402223	-0.652066
O15	O	1.115748	-0.311241	-0.846732
O16	O	1.115555	-0.522353	-0.504677
O17	O	1.024616	-0.522300	-0.652067
C18	C	0.877778	-0.356756	-0.578362
C19	C	0.795464	-0.356761	-0.578364
C20	C	0.496373	-0.356808	-0.578465
C21	C	0.527692	-0.299313	-0.486182
C22	C	0.613310	-0.299467	-0.485789
C23	C	0.644755	-0.356784	-0.578415
C24	C	0.613635	-0.434799	-0.543859
C25	C	0.527990	-0.434479	-0.543217
C26	C	0.527993	-0.336965	-0.705520
C27	C	0.613644	-0.335228	-0.704826
C28	C	0.728615	-0.356775	-0.578388
C29	C	0.412513	-0.356821	-0.578488
C30	C	1.070089	-0.549197	-0.578389
C31	C	1.070114	-0.631511	-0.578414
C32	C	1.070277	-0.930602	-0.578479
C33	C	1.013194	-0.899274	-0.671444
C34	C	1.012922	-0.813656	-0.671153
C35	C	1.070196	-0.782219	-0.578448
C36	C	1.049061	-0.813380	-0.451956
C37	C	1.048693	-0.899026	-0.452512
C38	C	1.148620	-0.898949	-0.610893
C39	C	1.148160	-0.813298	-0.613667
C40	C	1.070152	-0.698360	-0.578423
C41	C	1.070319	-1.014461	-0.578496
C42	C	1.263350	-0.356817	-0.578488
C43	C	1.345664	-0.356830	-0.578515
C44	C	1.070245	-0.356704	-0.891467
C45	C	1.070269	-0.356669	-1.024867
C46	C	1.070308	-0.163624	-0.578486
C47	C	1.070359	-0.081310	-0.578513
C48	C	1.070174	-0.356815	-0.266600
C49	C	1.070293	-0.356641	-0.133201
H50	H	1.026146	-0.792585	-0.764945
H51	H	0.635052	-0.374052	-0.777268
H52	H	0.633759	-0.312585	-0.391642
C53	C	0.641739	-0.221314	-0.515021
H54	H	0.600945	-0.189183	-0.527240
H55	H	0.671024	-0.222910	-0.585568
H56	H	0.670777	-0.203624	-0.450262
C57	C	1.169700	-0.785771	-0.739414
H58	H	1.131348	-0.755461	-0.770329
H59	H	1.176925	-0.826899	-0.790882
H60	H	1.214114	-0.757952	-0.734599
C61	C	1.208660	-0.784390	-0.528871
H62	H	1.255133	-0.804040	-0.552255
H63	H	1.197836	-0.799300	-0.449212
H64	H	1.210341	-0.731990	-0.532847
H65	H	0.507122	-0.241285	-0.507603
C66	C	1.103453	-0.785873	-0.355825
H67	H	1.139619	-0.755064	-0.392066
H68	H	1.126996	-0.826989	-0.319265
H69	H	1.077297	-0.758581	-0.296846
H70	H	1.191149	-0.919209	-0.543184
H71	H	1.167888	-0.920491	-0.701560
H72	H	0.506138	-0.312283	-0.392584
C73	C	0.500946	-0.457201	-0.417741
H74	H	0.542302	-0.466536	-0.367637
H75	H	0.471705	-0.500633	-0.423704
H76	H	0.472158	-0.418440	-0.384458
H77	H	0.634003	-0.478785	-0.608970
H78	H	0.992399	-0.791994	-0.424008
H79	H	0.507271	-0.478769	-0.607501
H80	H	0.635046	-0.451916	-0.451979
H81	H	0.506422	-0.281067	-0.736938
H82	H	0.633989	-0.277818	-0.730882
H83	H	0.507739	-0.378842	-0.774279
H84	H	1.026286	-0.919814	-0.765539
C85	C	0.935221	-0.928422	-0.642801
H86	H	0.937304	-0.959598	-0.574431
H87	H	0.917029	-0.955658	-0.709218
H88	H	0.903228	-0.887985	-0.627057
C89	C	1.102416	-0.927034	-0.355750
H90	H	1.102559	-0.979518	-0.355440
H91	H	1.087063	-0.909445	-0.279592
H92	H	1.150774	-0.909425	-0.372537
C93	C	0.934480	-0.786057	-0.642130
H94	H	0.902656	-0.827188	-0.630460
H95	H	0.916692	-0.756901	-0.706706
H96	H	0.935695	-0.757063	-0.571291
C97	C	0.971329	-0.926103	-0.415434
H98	H	0.940420	-0.884760	-0.400179
H99	H	0.975117	-0.955362	-0.345075
H100	H	0.950714	-0.954880	-0.478193
