data_functionalizedCrystal
_audit_creation_method	'MofGen! by Chris Wilmer'
_symmetry_space_group_name_H-M	'P1'
_symmetry_Int_Tables_number	1
_symmetry_cell_setting	triclinic
loop_
_symmetry_equiv_pos_as_xyz
  x,y,z
_cell_length_a	17.077404
_cell_length_b	18.101395
_cell_length_c	17.077396
_cell_angle_alpha	90.027467
_cell_angle_beta	90.019501
_cell_angle_gamma	90.031329
loop_
_atom_site_label
_atom_site_type_symbol
_atom_site_fract_x
_atom_site_fract_y
_atom_site_fract_z
Zn1	Zn	1.200010	-0.294825	0.443848
Zn2	Zn	1.533343	0.038508	0.777182
Zn3	Zn	1.866676	0.371841	1.110515
Zn4	Zn	1.199898	-0.418674	0.312585
Zn5	Zn	1.533231	-0.085340	0.645918
Zn6	Zn	1.866565	0.247993	0.979251
Zn7	Zn	1.068742	-0.294851	0.312596
Zn8	Zn	1.402075	0.038482	0.645930
Zn9	Zn	1.735408	0.371816	0.979263
Zn10	Zn	1.068691	-0.418630	0.443808
Zn11	Zn	1.402024	-0.085297	0.777141
Zn12	Zn	1.735357	0.248037	1.110475
O13	O	1.134335	-0.356745	0.378209
O14	O	1.467668	-0.023412	0.711543
O15	O	1.801002	0.309922	1.044876
O16	O	1.309842	-0.311261	0.426448
O17	O	1.643175	0.022072	0.759781
O18	O	1.976509	0.355405	1.093114
O19	O	1.182474	-0.402278	0.202739
O20	O	1.515808	-0.068944	0.536072
O21	O	1.849141	0.264389	0.869406
O22	O	1.086223	-0.191215	0.330029
O23	O	1.419556	0.142119	0.663362
O24	O	1.752889	0.475452	0.996695
O25	O	1.309760	-0.402253	0.330009
O26	O	1.643093	-0.068919	0.663342
O27	O	1.976426	0.264414	0.996676
O28	O	1.182665	-0.191196	0.426459
O29	O	1.515998	0.142138	0.759792
O30	O	1.849332	0.475471	1.093126
O31	O	1.086114	-0.311306	0.202748
O32	O	1.419448	0.022028	0.536081
O33	O	1.752781	0.355361	0.869414
O34	O	0.958888	-0.311263	0.329990
O35	O	1.292221	0.022070	0.663323
O36	O	1.625555	0.355404	0.996656
O37	O	1.086136	-0.402178	0.553660
O38	O	1.419469	-0.068844	0.886994
O39	O	1.752803	0.264489	1.220327
O40	O	0.958851	-0.402203	0.426391
O41	O	1.292184	-0.068870	0.759724
O42	O	1.625517	0.264464	1.093057
O43	O	1.182616	-0.311219	0.553690
O44	O	1.515949	0.022114	0.887023
O45	O	1.849282	0.355448	1.220357
O46	O	1.182425	-0.522301	0.329970
O47	O	1.515758	-0.188968	0.663303
O48	O	1.849092	0.144366	0.996637
O49	O	1.086028	-0.522269	0.426379
O50	O	1.419361	-0.188935	0.759713
O51	O	1.752694	0.144398	1.093046
C52	C	0.930387	-0.356732	0.378188
C53	C	1.263721	-0.023398	0.711521
C54	C	1.597054	0.309935	1.044854
C55	C	0.843137	-0.356744	0.378197
C56	C	1.176471	-0.023410	0.711530
C57	C	1.509804	0.309923	1.044864
C58	C	1.134230	-0.549156	0.378186
C59	C	1.467563	-0.215822	0.711520
C60	C	1.800897	0.117511	1.044853
C61	C	1.134257	-0.631470	0.378203
C62	C	1.467590	-0.298136	0.711536
C63	C	1.800924	0.035197	1.044869
C64	C	0.802148	-0.404167	0.428312
C65	C	1.135482	-0.070834	0.761646
C66	C	1.468815	0.262499	1.094979
C67	C	0.720168	-0.404169	0.428325
C68	C	1.053501	-0.070836	0.761658
C69	C	1.386835	0.262498	1.094992
C70	C	0.679178	-0.356750	0.378218
C71	C	1.012511	-0.023417	0.711551
C72	C	1.345845	0.309917	1.044884
C73	C	0.720173	-0.309321	0.328100
C74	C	1.053506	0.024012	0.661433
C75	C	1.386839	0.357346	0.994767
C76	C	0.802152	-0.309316	0.328092
C77	C	1.135485	0.024017	0.661425
C78	C	1.468818	0.357350	0.994759
C79	C	0.549303	-0.309336	0.328119
C80	C	0.882636	0.023998	0.661452
C81	C	1.215969	0.357331	0.994785
C82	C	0.467318	-0.309341	0.328126
C83	C	0.800651	0.023992	0.661459
C84	C	1.133985	0.357325	0.994792
C85	C	0.467319	-0.404188	0.428352
C86	C	0.800652	-0.070855	0.761685
C87	C	1.133986	0.262478	1.095018
C88	C	0.549298	-0.404184	0.428344
C89	C	0.882631	-0.070850	0.761677
C90	C	1.215965	0.262483	1.095010
C91	C	0.590287	-0.356755	0.378225
C92	C	0.923620	-0.023422	0.711558
C93	C	1.256954	0.309911	1.044892
C94	C	1.134429	-0.930561	0.378245
C95	C	1.467763	-0.597227	0.711578
C96	C	1.801096	-0.263894	1.044912
C97	C	1.073919	-0.899246	0.439054
C98	C	1.407253	-0.565913	0.772387
C99	C	1.740586	-0.232579	1.105720
C100	C	1.073632	-0.813628	0.438863
C101	C	1.406965	-0.480295	0.772197
C102	C	1.740298	-0.146961	1.105530
C103	C	1.134344	-0.782178	0.378225
C104	C	1.467677	-0.448845	0.711558
C105	C	1.801010	-0.115511	1.044891
C106	C	1.111947	-0.813330	0.295495
C107	C	1.445280	-0.479996	0.628828
C108	C	1.778613	-0.146663	0.962162
C109	C	1.111557	-0.898975	0.295859
C110	C	1.444890	-0.565642	0.629192
C111	C	1.778223	-0.232308	0.962526
C112	C	1.217469	-0.898904	0.399437
C113	C	1.550802	-0.565571	0.732771
C114	C	1.884135	-0.232237	1.066104
C115	C	1.216980	-0.813253	0.401252
C116	C	1.550314	-0.479919	0.734585
C117	C	1.883647	-0.146586	1.067918
C118	C	1.134297	-0.698319	0.378208
C119	C	1.467630	-0.364985	0.711541
C120	C	1.800963	-0.031652	1.044875
C121	C	1.134474	-1.014420	0.378256
C122	C	1.467808	-0.681087	0.711589
C123	C	1.801141	-0.347753	1.044923
C124	C	1.339079	-0.356759	0.378231
C125	C	1.672413	-0.023426	0.711565
C126	C	2.005746	0.309908	1.044898
C127	C	1.426329	-0.356765	0.378241
C128	C	1.759662	-0.023432	0.711574
C129	C	2.092996	0.309902	1.044908
C130	C	1.134383	-0.356690	0.582954
C131	C	1.467716	-0.023357	0.916287
C132	C	1.801049	0.309976	1.249620
C133	C	1.134403	-0.356667	0.670203
C134	C	1.467736	-0.023334	1.003537
C135	C	1.801069	0.309999	1.336870
C136	C	1.134462	-0.163583	0.378250
C137	C	1.467795	0.169750	0.711583
C138	C	1.801129	0.503084	1.044916
C139	C	1.134516	-0.081269	0.378267
C140	C	1.467849	0.252064	0.711600
C141	C	1.801183	0.585398	1.044933
C142	C	1.134333	-0.356746	0.174261
C143	C	1.467666	-0.023413	0.507595
C144	C	1.801000	0.309921	0.840928
C145	C	1.134465	-0.356561	0.087012
C146	C	1.467798	-0.023227	0.420345
C147	C	1.801131	0.310106	0.753679
C148	C	1.184642	-0.309301	0.711210
C149	C	1.517975	0.024032	1.044544
C150	C	1.851308	0.357366	1.377877
C151	C	1.184651	-0.309276	0.793191
C152	C	1.517984	0.024057	1.126524
C153	C	1.851318	0.357390	1.459857
C154	C	1.134425	-0.356622	0.834163
C155	C	1.467758	-0.023289	1.167496
C156	C	1.801092	0.310044	1.500830
C157	C	1.084181	-0.403990	0.793150
C158	C	1.417514	-0.070657	1.126484
C159	C	1.750848	0.262676	1.459817
C160	C	1.084168	-0.404011	0.711171
C161	C	1.417501	-0.070677	1.044505
C162	C	1.750835	0.262656	1.377838
C163	C	1.084212	-0.403946	0.964021
C164	C	1.417546	-0.070613	1.297354
C165	C	1.750879	0.262721	1.630687
C166	C	1.084226	-0.403927	1.046005
C167	C	1.417559	-0.070593	1.379339
C168	C	1.750893	0.262740	1.712672
C169	C	1.184695	-0.309211	1.046040
C170	C	1.518029	0.024122	1.379373
C171	C	1.851362	0.357455	1.712707
C172	C	1.184683	-0.309232	0.964061
C173	C	1.518016	0.024102	1.297394
C174	C	1.851349	0.357435	1.630728
C175	C	1.134439	-0.356601	0.923054
C176	C	1.467772	-0.023268	1.256387
C177	C	1.801106	0.310065	1.589721
H178	H	0.835516	-0.442784	0.469113
H179	H	1.168850	-0.109451	0.802446
H180	H	1.502183	0.223883	1.135780
H181	H	1.225562	-0.270708	0.826575
H182	H	1.558896	0.062626	1.159908
H183	H	1.892229	0.395959	1.493242
F184	F	1.030736	-0.454361	0.920380
F185	F	1.364069	-0.121027	1.253713
F186	F	1.697402	0.212306	1.587047
H187	H	1.225544	-0.270749	0.677857
H188	H	1.558877	0.062585	1.011190
H189	H	1.892210	0.395918	1.344523
F190	F	1.238143	-0.258846	0.920457
F191	F	1.571476	0.074488	1.253790
F192	F	1.904810	0.407821	1.587123
F193	F	1.238169	-0.258798	1.089683
F194	F	1.571503	0.074536	1.423016
F195	F	1.904836	0.407869	1.756350
F196	F	0.423695	-0.258876	0.274793
F197	F	0.757029	0.074458	0.608126
F198	F	1.090362	0.407791	0.941459
H199	H	1.012081	-0.793205	0.424826
H200	H	1.345414	-0.459872	0.758159
H201	H	1.678747	-0.126538	1.091492
H202	H	0.686792	-0.270709	0.287305
H203	H	1.020126	0.062625	0.620638
H204	H	1.353459	0.395958	0.953972
F205	F	1.030695	-0.454423	0.667529
F206	F	1.364028	-0.121089	1.000863
F207	F	1.697362	0.212244	1.334196
F208	F	1.239059	-0.786638	0.480832
F209	F	1.572392	-0.453304	0.814165
F210	F	1.905725	-0.119971	1.147499
F211	F	0.676548	-0.454644	0.481665
F212	F	1.009881	-0.121310	0.814998
F213	F	1.343215	0.212023	1.148332
H214	H	1.043326	-0.442478	1.079363
H215	H	1.376659	-0.109145	1.412696
H216	H	1.709993	0.224188	1.746029
H217	H	1.043283	-0.442538	0.826517
H218	H	1.376617	-0.109204	1.159850
H219	H	1.709950	0.224129	1.493183
H220	H	0.433942	-0.442804	0.469163
H221	H	0.767275	-0.109471	0.802496
H222	H	1.100608	0.223863	1.135829
F223	F	0.592925	-0.258856	0.274777
F224	F	0.926258	0.074477	0.608111
F225	F	1.259591	0.407811	0.941444
F226	F	0.592921	-0.454657	0.481669
F227	F	0.926254	-0.121324	0.815002
F228	F	1.259587	0.212010	1.148335
F229	F	1.276398	-0.925383	0.341558
F230	F	1.609731	-0.592050	0.674891
F231	F	1.943064	-0.258717	1.008225
H232	H	1.087644	-0.792564	0.500206
H233	H	1.420978	-0.459230	0.833540
H234	H	1.754311	-0.125897	1.166873
F235	F	0.845775	-0.258840	0.274754
F236	F	1.179108	0.074493	0.608087
F237	F	1.512442	0.407827	0.941420
H238	H	1.087793	-0.919793	0.500595
H239	H	1.421126	-0.586460	0.833929
H240	H	1.754459	-0.253127	1.167262
F241	F	1.166657	-0.926056	0.234616
F242	F	1.499990	-0.592723	0.567949
F243	F	1.833323	-0.259390	0.901282
F244	F	0.993959	-0.927474	0.420950
F245	F	1.327292	-0.594141	0.754283
F246	F	1.660625	-0.260807	1.087616
F247	F	1.032216	-0.925175	0.272395
F248	F	1.365549	-0.591842	0.605728
F249	F	1.698883	-0.258508	0.939061
H250	H	1.154633	-0.792959	0.248952
H251	H	1.487966	-0.459626	0.582286
H252	H	1.821299	-0.126293	0.915619
H253	H	1.051888	-0.791945	0.277221
H254	H	1.385222	-0.458612	0.610554
H255	H	1.718555	-0.125279	0.943888
H256	H	1.237888	-0.920452	0.458736
H257	H	1.571221	-0.587118	0.792069
H258	H	1.904555	-0.253785	1.125402
H259	H	1.264448	-0.791840	0.360190
H260	H	1.597782	-0.458507	0.693523
H261	H	1.931115	-0.125174	1.026857
