data_functionalizedCrystal
_audit_creation_method	'MofGen! by Chris Wilmer'
_symmetry_space_group_name_H-M	'P1'
_symmetry_Int_Tables_number	1
_symmetry_cell_setting	triclinic
loop_
_symmetry_equiv_pos_as_xyz
  x,y,z
_cell_length_a	19.121321
_cell_length_b	19.121063
_cell_length_c	18.215399
_cell_angle_alpha	87.590157
_cell_angle_beta	87.578430
_cell_angle_gamma	89.929715
loop_
_atom_site_label
_atom_site_type_symbol
_atom_site_fract_x
_atom_site_fract_y
_atom_site_fract_z
Zn1	Zn	1.059811	-0.324761	0.383198
Zn2	Zn	1.559811	0.175239	0.883198
Zn3	Zn	1.054716	-0.441999	0.265592
Zn4	Zn	1.554716	0.058001	0.765592
Zn5	Zn	0.942577	-0.319789	0.265168
Zn6	Zn	1.442577	0.180211	0.765168
Zn7	Zn	0.937540	-0.436968	0.393635
Zn8	Zn	1.437540	0.063032	0.893635
O9	O	0.998661	-0.380879	0.326898
O10	O	1.498661	0.119121	0.826898
O11	O	1.157236	-0.344498	0.363407
O12	O	1.657236	0.155502	0.863407
O13	O	1.039817	-0.425812	0.162554
O14	O	1.539817	0.074188	0.662554
O15	O	0.962368	-0.222345	0.276279
O16	O	1.462368	0.277655	0.776279
O17	O	1.153493	-0.430633	0.277002
O18	O	1.653493	0.069367	0.777002
O19	O	1.048499	-0.225997	0.362995
O20	O	1.548499	0.274003	0.862995
O21	O	0.957428	-0.336026	0.162242
O22	O	1.457428	0.163974	0.662242
O23	O	0.843808	-0.331148	0.286400
O24	O	1.343808	0.168852	0.786400
O25	O	0.953784	-0.422058	0.495232
O26	O	1.453784	0.077942	0.995232
O27	O	0.840107	-0.417238	0.380784
O28	O	1.340107	0.082762	0.880784
O29	O	1.043615	-0.339620	0.487564
O30	O	1.543615	0.160380	0.987564
O31	O	1.034933	-0.539435	0.287123
O32	O	1.534933	-0.039435	0.787123
O33	O	0.948844	-0.535739	0.381195
O34	O	1.448844	-0.035739	0.881195
C35	C	0.816521	-0.373108	0.334679
C36	C	1.316521	0.126892	0.834679
C37	C	0.738600	-0.369800	0.338025
C38	C	1.238600	0.130200	0.838025
C39	C	0.297993	-0.348791	0.359247
C40	C	0.797993	0.151209	0.859247
C41	C	0.371208	-0.351912	0.356098
C42	C	0.871208	0.148088	0.856098
C43	C	0.405861	-0.398245	0.309458
C44	C	0.905861	0.101755	0.809458
C45	C	0.367295	-0.441464	0.265969
C46	C	0.867295	0.058536	0.765969
C47	C	0.294082	-0.438346	0.269122
C48	C	0.794082	0.061654	0.769122
C49	C	0.626820	-0.409902	0.297689
C50	C	1.126820	0.090098	0.797689
C51	C	0.700039	-0.413015	0.294538
C52	C	1.200039	0.086985	0.794538
C53	C	0.703947	-0.323464	0.384668
C54	C	1.203947	0.176536	0.884668
C55	C	0.630732	-0.320347	0.387813
C56	C	1.130732	0.179653	0.887813
C57	C	0.592173	-0.363569	0.344327
C58	C	1.092173	0.136431	0.844327
C59	C	0.480698	-0.401434	0.306238
C60	C	0.980698	0.098566	0.806238
C61	C	0.517337	-0.360382	0.347553
C62	C	1.017337	0.139618	0.847553
C63	C	0.990808	-0.563025	0.335352
C64	C	1.490808	-0.063025	0.835352
C65	C	0.987513	-0.640951	0.338991
C66	C	1.487513	-0.140951	0.838991
C67	C	1.030821	-0.679463	0.291760
C68	C	1.530821	-0.179463	0.791760
C69	C	1.027726	-0.752683	0.295186
C70	C	1.527726	-0.252683	0.795186
C71	C	0.981319	-0.787388	0.345841
C72	C	1.481319	-0.287388	0.845841
C73	C	0.938008	-0.748871	0.393077
C74	C	1.438008	-0.248871	0.893077
C75	C	0.941107	-0.675653	0.389654
C76	C	1.441107	-0.175653	0.889654
C77	C	0.969720	-1.008364	0.358629
C78	C	1.469720	-0.508364	0.858629
C79	C	0.966623	-1.081588	0.362047
C80	C	1.466623	-0.581588	0.862047
C81	C	1.056342	-1.085394	0.264156
C82	C	1.556342	-0.585394	0.764156
C83	C	1.059434	-1.012174	0.260734
C84	C	1.559434	-0.512174	0.760734
C85	C	1.016126	-0.973664	0.307974
C86	C	1.516126	-0.473664	0.807974
C87	C	0.978152	-0.862230	0.349343
C88	C	1.478152	-0.362230	0.849343
C89	C	1.019297	-0.898823	0.304475
C90	C	1.519297	-0.398823	0.804475
C91	C	1.181512	-0.388681	0.319088
C92	C	1.681512	0.111319	0.819088
C93	C	1.259433	-0.392006	0.315759
C94	C	1.759433	0.107994	0.815759
C95	C	0.998706	-0.380833	0.518847
C96	C	1.498706	0.119167	1.018847
C97	C	0.998725	-0.380813	0.600644
C98	C	1.498725	0.119187	1.100644
C99	C	1.006564	-0.198022	0.318426
C100	C	1.506564	0.301978	0.818426
C101	C	1.009931	-0.120100	0.314816
C102	C	1.509931	0.379900	0.814816
C103	C	0.998659	-0.380877	0.135692
C104	C	1.498659	0.119123	0.635692
C105	C	0.998784	-0.380705	0.053880
C106	C	1.498784	0.119295	0.553880
C107	C	1.045518	-0.337846	0.784844
C108	C	1.545518	0.162154	1.284844
C109	C	1.045527	-0.337826	0.861702
C110	C	1.545527	0.162174	1.361702
C111	C	0.951986	-0.423673	0.869675
C112	C	1.451986	0.076327	1.369675
C113	C	0.951974	-0.423689	0.792819
C114	C	1.451974	0.076311	1.292819
C115	C	0.998744	-0.380777	0.750405
C116	C	1.498744	0.119223	1.250405
C117	C	0.998765	-0.380741	0.904119
C118	C	1.498765	0.119259	1.404119
C119	C	0.998775	-0.380719	0.987451
C120	C	1.498775	0.119281	1.487451
C121	C	0.998733	-0.380797	0.667068
C122	C	1.498733	0.119203	1.167068
H123	H	0.728251	-0.450746	0.256557
H124	H	1.228251	0.049254	0.756557
C125	C	0.405416	-0.492427	0.214662
C126	C	0.905416	0.007573	0.714662
N127	N	0.434128	-0.530810	0.176012
N128	N	0.934128	-0.030810	0.676012
H129	H	1.083614	-0.302866	0.889738
H130	H	1.583614	0.197134	1.389738
C131	C	0.746368	-0.275927	0.432504
C132	C	1.246368	0.224073	0.932504
N133	N	0.778320	-0.240123	0.468538
N134	N	1.278320	0.259877	0.968538
H135	H	0.934456	-0.977014	0.397091
H136	H	1.434456	-0.477014	0.897091
C137	C	0.518824	-0.452390	0.254925
C138	C	1.018824	0.047610	0.754925
N139	N	0.547543	-0.490768	0.216275
N140	N	1.047543	0.009232	0.716275
H141	H	0.913909	-0.458613	0.904217
H142	H	1.413909	0.041387	1.404217
C143	C	1.110468	-0.974003	0.204992
C144	C	1.610468	-0.474003	0.704992
N145	N	1.148900	-0.945252	0.162998
N146	N	1.648900	-0.445252	0.662998
H147	H	0.269785	-0.311058	0.397221
H148	H	0.769785	0.188942	0.897221
C149	C	0.413622	-0.304367	0.403932
C150	C	0.913622	0.195633	0.903932
N151	N	0.445568	-0.268552	0.439961
N152	N	0.945568	0.231448	0.939961
H153	H	0.913880	-0.458648	0.764779
H154	H	1.413880	0.041352	1.264779
H155	H	0.262686	-0.473537	0.233711
H156	H	0.762686	0.026463	0.733711
H157	H	0.940365	-0.890496	0.390585
H158	H	1.440365	-0.390496	0.890585
C159	C	0.592620	-0.269380	0.439123
C160	C	1.092620	0.230620	0.939123
N161	N	0.563913	-0.230990	0.477770
N162	N	1.063913	0.269010	0.977770
C163	C	1.070343	-0.860644	0.248755
C164	C	1.570343	-0.360644	0.748755
N165	N	1.108787	-0.831882	0.206783
N166	N	1.608787	-0.331882	0.706783
H167	H	0.595434	-0.445094	0.262277
H168	H	1.095434	0.054906	0.762277
H169	H	0.489119	-0.322661	0.385529
H170	H	0.989119	0.177339	0.885529
C171	C	1.081872	-0.641294	0.236033
C172	C	1.581872	-0.141294	0.736033
N173	N	1.120327	-0.612546	0.194060
N174	N	1.620327	-0.112546	0.694060
C175	C	1.103979	-1.127762	0.212199
C176	C	1.603979	-0.627762	0.712199
N177	N	1.139863	-1.159674	0.173064
N178	N	1.639863	-0.659674	0.673064
H179	H	1.062992	-0.784036	0.256725
H180	H	1.562992	-0.284036	0.756725
C181	C	0.915573	-1.119762	0.417778
C182	C	1.415573	-0.619762	0.917778
N183	N	0.877125	-1.148516	0.459753
N184	N	1.377125	-0.648516	0.959753
H185	H	0.900225	-0.777134	0.434325
H186	H	1.400225	-0.277134	0.934325
H187	H	0.905842	-0.644297	0.428116
H188	H	1.405842	-0.144297	0.928116
C189	C	1.096960	-0.290635	0.738192
C190	C	1.596960	0.209365	1.238192
N191	N	1.135706	-0.255071	0.703055
N192	N	1.635706	0.244929	1.203055
