data_functionalizedCrystal
_audit_creation_method	'MofGen! by Chris Wilmer'
_symmetry_space_group_name_H-M	'P1'
_symmetry_Int_Tables_number	1
_symmetry_cell_setting	triclinic
loop_
_symmetry_equiv_pos_as_xyz
  x,y,z
_cell_length_a	14.044220
_cell_length_b	10.540539
_cell_length_c	13.101039
_cell_angle_alpha	93.398267
_cell_angle_beta	86.340132
_cell_angle_gamma	88.857185
loop_
_atom_site_label
_atom_site_type_symbol
_atom_site_fract_x
_atom_site_fract_y
_atom_site_fract_z
O1	O	1.264944	0.299850	-0.085096
O2	O	1.764944	0.799850	0.414904
O3	O	0.988901	0.288796	-0.085123
O4	O	1.488901	0.788796	0.414877
O5	O	1.133220	0.110253	-0.085108
O6	O	1.633220	0.610253	0.414892
O7	O	1.120625	0.478393	-0.085111
O8	O	1.620625	0.978393	0.414889
O9	O	1.122866	0.123087	0.085321
O10	O	1.622866	0.623087	0.585321
O11	O	0.978547	0.301630	0.085306
O12	O	1.478547	0.801630	0.585306
O13	O	1.254589	0.312683	0.085332
O14	O	1.754589	0.812683	0.585332
Zn15	Zn	1.114924	0.309194	0.112379
Zn16	Zn	1.614924	0.809194	0.612379
Zn17	Zn	1.128566	0.292285	-0.112169
Zn18	Zn	1.628566	0.792285	0.387831
O19	O	1.110270	0.491226	0.085317
O20	O	1.610270	0.991226	0.585317
C21	C	0.948377	0.290375	0.000088
C22	C	1.448377	0.790375	0.500088
C23	C	0.843054	0.275945	0.000078
C24	C	1.343054	0.775945	0.500078
C25	C	0.650213	0.249565	0.000099
C26	C	1.150213	0.749565	0.500099
C27	C	0.593272	0.351908	0.000102
C28	C	1.093272	0.851908	0.500102
C29	C	0.485969	0.337230	0.000114
C30	C	0.985969	0.837230	0.500114
C31	C	0.757526	0.264241	0.000087
C32	C	1.257526	0.764241	0.500087
C33	C	1.127098	0.069271	0.000105
C34	C	1.627098	0.569271	0.500105
C35	C	1.124273	-0.071963	0.000099
C36	C	1.624273	0.428037	0.500099
C37	C	1.016007	-0.266367	-0.000294
C38	C	1.516007	0.233633	0.499706
C39	C	1.018849	-0.119430	0.000090
C40	C	1.518849	0.380570	0.500090
C41	C	1.169094	-0.121162	0.097427
C42	C	1.669094	0.378838	0.597427
C43	C	1.165492	-0.268064	0.097509
C44	C	1.665492	0.231936	0.597509
C45	C	1.179411	-0.282960	-0.096300
C46	C	1.679411	0.217040	0.403700
C47	C	1.180460	-0.135977	-0.097587
C48	C	1.680460	0.364023	0.402413
C49	C	1.295114	0.311104	0.000119
C50	C	1.795114	0.811104	0.500119
C51	C	1.400437	0.325534	0.000123
C52	C	1.900437	0.825534	0.500123
C53	C	1.116392	0.532208	0.000103
C54	C	1.616392	1.032208	0.500103
C55	C	1.119218	0.673442	0.000102
C56	C	1.619218	1.173442	0.500102
N57	N	1.105620	0.320734	0.265626
N58	N	1.605620	0.820734	0.765626
N59	N	1.137878	0.280737	-0.265416
N60	N	1.637878	0.780737	0.234584
C61	C	1.092962	0.336445	0.474667
C62	C	1.592962	0.836445	0.974667
C63	C	1.150533	0.265029	0.525549
C64	C	1.650533	0.765029	1.025549
C65	C	1.143490	0.273771	0.641867
C66	C	1.643490	0.773771	1.141867
C67	C	1.100004	0.327705	0.358339
C68	C	1.600004	0.827705	0.858339
H69	H	0.618376	0.150932	0.000105
H70	H	1.118376	0.650932	0.500105
C71	C	1.076450	-0.157169	0.253018
C72	C	1.576450	0.342831	0.753018
C73	C	1.115579	-0.061121	0.195201
C74	C	1.615579	0.438879	0.695201
H75	H	1.043413	-0.120102	0.313379
H76	H	1.543413	0.379898	0.813379
H77	H	1.033274	-0.204299	0.213641
H78	H	1.533274	0.295701	0.713641
H79	H	1.126131	-0.212235	0.271257
H80	H	1.626131	0.287765	0.771257
H81	H	1.065896	-0.006061	0.176954
H82	H	1.565896	0.493939	0.676954
H83	H	1.158758	-0.013970	0.234585
H84	H	1.658758	0.486030	0.734585
C85	C	0.920230	-0.159065	0.150831
C86	C	1.420230	0.340935	0.650831
C87	C	0.958866	-0.061432	0.094433
C88	C	1.458866	0.438568	0.594433
H89	H	0.883206	-0.123257	0.209083
H90	H	1.383206	0.376743	0.709083
H91	H	0.880853	-0.209468	0.109149
H92	H	1.380853	0.290532	0.609149
H93	H	0.970433	-0.210673	0.172526
H94	H	1.470433	0.289327	0.672526
H95	H	0.908663	-0.009830	0.072732
H96	H	1.408663	0.490170	0.572732
H97	H	0.998245	-0.011008	0.136123
H98	H	1.498245	0.488992	0.636123
H99	H	0.983167	-0.086117	-0.069679
H100	H	1.483167	0.413883	0.430321
C101	C	1.026503	-0.404197	-0.153409
C102	C	1.526503	0.095803	0.346591
C103	C	0.965499	-0.317764	-0.094506
C104	C	1.465499	0.182236	0.405494
H105	H	0.995316	-0.435939	-0.211569
H106	H	1.495316	0.064061	0.288431
H107	H	1.082915	-0.362569	-0.175288
H108	H	1.582915	0.137431	0.324712
H109	H	1.042637	-0.472713	-0.113320
H110	H	1.542637	0.027287	0.386680
H111	H	0.949370	-0.249242	-0.134594
H112	H	1.449370	0.250758	0.365406
H113	H	0.909069	-0.359392	-0.072629
H114	H	1.409069	0.140608	0.427371
H115	H	0.970315	-0.295542	0.069103
H116	H	1.470315	0.204458	0.569103
C117	C	1.331549	-0.222013	0.107000
C118	C	1.831549	0.277987	0.607000
C119	C	1.267477	-0.322032	0.103498
C120	C	1.767477	0.177968	0.603498
H121	H	1.394507	-0.255328	0.110708
H122	H	1.894507	0.244672	0.610708
H123	H	1.328357	-0.176175	0.046993
H124	H	1.828357	0.323825	0.546993
H125	H	1.315244	-0.166715	0.165687
H126	H	1.815244	0.333285	0.665687
H127	H	1.283778	-0.377325	0.044806
H128	H	1.783778	0.122675	0.544806
H129	H	1.270673	-0.367890	0.163511
H130	H	1.770673	0.132110	0.663511
H131	H	1.149772	-0.323517	-0.170068
H132	H	1.649772	0.176483	0.329932
C133	C	1.026500	0.418936	0.639237
C134	C	1.526500	0.918936	1.139237
C135	C	1.019296	0.427856	0.533783
C136	C	1.519296	0.927856	1.033783
H137	H	0.981027	0.475378	0.675739
H138	H	1.481027	0.975378	1.175739
H139	H	1.014462	0.334314	0.656753
H140	H	1.514462	0.834314	1.156753
H141	H	1.088893	0.441089	0.656739
H142	H	1.588893	0.941089	1.156739
H143	H	0.956905	0.405695	0.516279
H144	H	1.456905	0.905695	1.016279
H145	H	1.031326	0.512497	0.516260
H146	H	1.531326	1.012497	1.016260
H147	H	0.625112	0.450550	0.000096
H148	H	1.125112	0.950550	0.500096
C149	C	1.205089	-0.031301	-0.254654
C150	C	1.705089	0.468699	0.245346
C151	C	1.136329	-0.093087	-0.194793
C152	C	1.636329	0.406913	0.305207
H153	H	1.177843	-0.004823	-0.314664
H154	H	1.677843	0.495177	0.185336
H155	H	1.226509	0.040810	-0.216436
H156	H	1.726509	0.540810	0.283564
H157	H	1.257542	-0.088000	-0.273472
H158	H	1.757542	0.412000	0.226528
H159	H	1.083879	-0.036384	-0.175968
H160	H	1.583879	0.463616	0.324032
H161	H	1.114895	-0.165208	-0.233018
H162	H	1.614895	0.334792	0.266982
H163	H	1.257679	-0.104427	-0.103457
H164	H	1.757679	0.395573	0.396543
H165	H	1.205111	0.197322	0.481752
H166	H	1.705111	0.697322	0.981752
H167	H	1.246295	-0.090708	0.101053
H168	H	1.746295	0.409292	0.601053
C169	C	1.302940	-0.413862	-0.186723
C170	C	1.802940	0.086138	0.313277
C171	C	1.282261	-0.336386	-0.097188
C172	C	1.782261	0.163614	0.402812
H173	H	1.366434	-0.446841	-0.187266
H174	H	1.866434	0.053159	0.312734
H175	H	1.259796	-0.482083	-0.188853
H176	H	1.759796	0.017917	0.311147
H177	H	1.296628	-0.365196	-0.244772
H178	H	1.796628	0.134804	0.255228
H179	H	1.288565	-0.385055	-0.039139
H180	H	1.788565	0.114945	0.460861
H181	H	1.325417	-0.268155	-0.095048
H182	H	1.825417	0.231845	0.404952
H183	H	1.123576	-0.294577	0.170256
H184	H	1.623576	0.205423	0.670256
