data_functionalizedCrystal
_audit_creation_method	'MofGen! by Chris Wilmer'
_symmetry_space_group_name_H-M	'P1'
_symmetry_Int_Tables_number	1
_symmetry_cell_setting	triclinic
loop_
_symmetry_equiv_pos_as_xyz
  x,y,z
_cell_length_a	11.792241
_cell_length_b	10.654550
_cell_length_c	9.130313
_cell_angle_alpha	90.004369
_cell_angle_beta	89.997349
_cell_angle_gamma	95.660827
loop_
_atom_site_label
_atom_site_type_symbol
_atom_site_fract_x
_atom_site_fract_y
_atom_site_fract_z
O1	O	1.507305	-0.172135	-0.121770
O2	O	1.177005	-0.189875	-0.121779
O3	O	1.349749	0.001755	-0.121765
O4	O	1.334561	-0.363766	-0.121784
O5	O	1.349737	0.001761	0.121834
O6	O	1.176993	-0.189870	0.121820
O7	O	1.507293	-0.172130	0.121829
Cu8	Cu	1.342142	-0.180999	0.144067
Cu9	Cu	1.342156	-0.181006	-0.144017
O10	O	1.334549	-0.363760	0.121815
C11	C	1.134705	-0.188758	0.000019
C12	C	1.008684	-0.185423	0.000016
C13	C	1.549592	-0.173247	0.000027
C14	C	1.675614	-0.176582	0.000021
C15	C	1.906340	-0.182715	0.000021
C16	C	1.777947	-0.179308	0.000022
C17	C	1.348628	0.048553	0.000033
C18	C	1.345291	0.187987	0.000031
C19	C	1.335670	-0.410558	0.000013
C20	C	1.339006	-0.549992	0.000006
N21	N	1.342140	-0.180994	0.346689
C22	C	1.447000	0.267760	0.000033
C23	C	1.443859	0.398772	0.000015
C24	C	1.237290	0.370225	-0.000001
C25	C	1.240433	0.239215	0.000007
N26	N	1.342166	-0.181001	-0.346640
C27	C	1.418657	-0.096175	0.423347
C28	C	1.418668	-0.096176	0.576684
C29	C	1.265641	-0.265824	0.576692
C30	C	1.265626	-0.265816	0.423357
H31	H	1.532383	0.226055	0.000050
H32	H	1.480974	-0.027108	0.639095
H33	H	1.203346	-0.334886	0.639130
H34	H	1.203311	-0.334886	0.360938
H35	H	1.526681	0.463719	0.000014
H36	H	1.151917	0.411951	-0.000018
Br37	Br	1.102389	0.130941	-0.000016
Br38	Br	1.522496	0.018943	0.319303
