data_functionalizedCrystal
_audit_creation_method	'MofGen! by Chris Wilmer'
_symmetry_space_group_name_H-M	'P1'
_symmetry_Int_Tables_number	1
_symmetry_cell_setting	triclinic
loop_
_symmetry_equiv_pos_as_xyz
  x,y,z
_cell_length_a	9.065218
_cell_length_b	16.098538
_cell_length_c	9.065218
_cell_angle_alpha	87.234761
_cell_angle_beta	85.015885
_cell_angle_gamma	92.779205
loop_
_atom_site_label
_atom_site_type_symbol
_atom_site_fract_x
_atom_site_fract_y
_atom_site_fract_z
O1	O	1.966920	0.069255	0.209851
O2	O	1.537636	0.069256	0.227597
O3	O	1.761151	0.069253	0.004082
O4	O	1.743405	0.069257	0.433366
O5	O	1.748094	-0.069259	0.017087
O6	O	1.524578	-0.069257	0.240602
O7	O	1.953863	-0.069258	0.222856
Zn8	Zn	1.737147	-0.091249	0.233794
Zn9	Zn	1.754351	0.091247	0.216659
O10	O	1.730347	-0.069256	0.446371
C11	C	1.476120	-0.000001	0.232394
C12	C	1.312277	-0.000000	0.227294
N13	N	1.725417	-0.215799	0.245487
C14	C	1.820322	-0.259385	0.150652
C15	C	1.812130	-0.346573	0.158846
C16	C	1.709039	-0.390175	0.261883
C17	C	1.614125	-0.346583	0.356721
C18	C	1.622310	-0.259395	0.348519
C19	C	1.679364	-0.653424	0.291591
C20	C	1.671188	-0.740618	0.299789
C21	C	1.869193	-0.740603	0.101911
C22	C	1.877375	-0.653414	0.093724
C23	C	1.782455	-0.609829	0.188557
C24	C	1.700666	-0.479296	0.270264
C25	C	1.790822	-0.520710	0.180168
C26	C	2.015378	0.000000	0.218059
C27	C	2.179222	0.000005	0.223158
C28	C	1.752917	-0.000002	-0.044402
C29	C	1.747818	0.000002	-0.208246
N30	N	1.766093	0.215796	0.204955
C31	C	1.738582	0.000001	0.494855
C32	C	1.743682	0.000002	0.658698
H33	H	1.904275	-0.223890	0.066756
H34	H	1.889407	-0.382061	0.081624
H35	H	1.961320	-0.617915	0.009824
H36	H	1.602079	-0.617945	0.368811
H37	H	1.946470	-0.776097	0.024701
H38	H	1.530178	-0.382088	0.440611
H39	H	1.587235	-0.776114	0.383700
O40	O	1.530058	-0.217182	0.440799
C41	C	1.332743	-0.226393	0.637872
C42	C	1.437161	-0.274302	0.533480
H43	H	1.257588	-0.272553	0.712810
H44	H	1.401181	-0.185582	0.708738
H45	H	1.262086	-0.185567	0.569265
H46	H	1.507840	-0.315173	0.601971
H47	H	1.368637	-0.315060	0.462609
O48	O	1.890740	-0.478284	0.079960
C49	C	1.928606	-0.379941	-0.130507
C50	C	1.815307	-0.427920	-0.017064
H51	H	1.867661	-0.339223	-0.208999
H52	H	2.007011	-0.339034	-0.069762
H53	H	1.995032	-0.426101	-0.196808
H54	H	1.748778	-0.381820	0.049270
H55	H	1.737002	-0.468839	-0.077897
O56	O	1.600464	-0.521747	0.370163
C57	C	1.390092	-0.620182	0.408005
C58	C	1.503503	-0.572168	0.294719
H59	H	1.311651	-0.660946	0.347051
H60	H	1.450872	-0.661046	0.486416
H61	H	1.323729	-0.574045	0.474424
H62	H	1.569898	-0.618245	0.228197
H63	H	1.442634	-0.531292	0.216408
