data_functionalizedCrystal
_audit_creation_method	'MofGen! by Chris Wilmer'
_symmetry_space_group_name_H-M	'P1'
_symmetry_Int_Tables_number	1
_symmetry_cell_setting	triclinic
loop_
_symmetry_equiv_pos_as_xyz
  x,y,z
_cell_length_a	12.594516
_cell_length_b	17.077404
_cell_length_c	17.077396
_cell_angle_alpha	90.017442
_cell_angle_beta	89.976020
_cell_angle_gamma	89.986879
loop_
_atom_site_label
_atom_site_type_symbol
_atom_site_fract_x
_atom_site_fract_y
_atom_site_fract_z
Zn1	Zn	-0.423817	-1.200074	-0.443876
Zn2	Zn	-0.601820	-1.200002	-0.312622
Zn3	Zn	-0.423847	-1.068811	-0.312623
Zn4	Zn	-0.601744	-1.068790	-0.443845
O5	O	-0.512807	-1.134419	-0.378242
O6	O	-0.447448	-1.309912	-0.426477
O7	O	-0.578256	-1.182578	-0.202775
O8	O	-0.274897	-1.086263	-0.330048
O9	O	-0.578226	-1.309859	-0.330046
O10	O	-0.274875	-1.182701	-0.426478
O11	O	-0.447500	-1.086193	-0.202776
O12	O	-0.447426	-0.958962	-0.330018
O13	O	-0.578098	-1.086226	-0.553696
O14	O	-0.578127	-0.958946	-0.426426
O15	O	-0.447375	-1.182680	-0.553719
O16	O	-0.750756	-1.182558	-0.330016
O17	O	-0.750700	-1.086156	-0.426425
C18	C	-0.512772	-0.930472	-0.378219
C19	C	-0.512783	-0.843222	-0.378228
C20	C	-0.444807	-0.802260	-0.428516
C21	C	-0.444812	-0.720280	-0.428518
C22	C	-0.512800	-0.679262	-0.378235
C23	C	-0.580779	-0.720230	-0.327942
C24	C	-0.580767	-0.802209	-0.327937
C25	C	-0.580799	-0.549360	-0.327958
C26	C	-0.580812	-0.467375	-0.327963
C27	C	-0.444844	-0.467431	-0.428538
C28	C	-0.444833	-0.549410	-0.428533
C29	C	-0.512814	-0.590371	-0.378241
C30	C	-0.789348	-1.134368	-0.378234
C31	C	-0.907653	-1.134418	-0.378257
C32	C	-0.976915	-1.081980	-0.430657
C33	C	-1.047775	-1.062859	-0.359029
C34	C	-1.047592	-1.153611	-0.449897
C35	C	-0.976955	-1.115259	-0.306591
C36	C	-0.976766	-1.206044	-0.397507
C37	C	-1.047594	-1.186950	-0.325830
C38	C	-0.235186	-1.134493	-0.378267
C39	C	-0.116881	-1.134524	-0.378277
C40	C	-0.512724	-1.134459	-0.582986
C41	C	-0.512689	-1.134476	-0.670236
C42	C	-0.512837	-0.339164	-0.378259
C43	C	-0.512836	-0.426414	-0.378251
C44	C	-0.444596	-1.084303	-0.711226
C45	C	-0.444572	-1.084316	-0.793206
C46	C	-0.512636	-1.134506	-0.834195
C47	C	-0.580737	-1.184681	-0.793200
C48	C	-0.580766	-1.184663	-0.711221
C49	C	-0.580670	-1.184715	-0.964070
C50	C	-0.580640	-1.184733	-1.046054
C51	C	-0.444477	-1.084367	-1.046056
C52	C	-0.444506	-1.084350	-0.964077
C53	C	-0.512605	-1.134526	-0.923086
C54	C	-0.512812	-1.134425	-0.174294
C55	C	-0.512548	-1.134561	-0.087044
H56	H	-0.636130	-0.686827	-0.286997
H57	H	-0.946056	-1.098998	-0.245998
H58	H	-1.078620	-1.169801	-0.510474
Br59	Br	-1.098995	-1.260941	-0.251907
H60	H	-0.389077	-1.043484	-0.930706
Br61	Br	-0.673022	-0.857801	-0.259685
Br62	Br	-0.925185	-1.007943	-0.504410
H63	H	-0.389128	-1.043457	-0.826577
H64	H	-0.636154	-0.582709	-0.287002
H65	H	-0.945555	-1.266553	-0.413807
Br66	Br	-0.352051	-1.016275	-1.101684
Br67	Br	-0.352210	-1.016190	-0.655606
H68	H	-0.636064	-1.225602	-1.079425
Br69	Br	-0.352576	-0.605076	-0.496783
Br70	Br	-0.673098	-1.252806	-0.908441
Br71	Br	-0.673121	-1.252790	-0.848827
Br72	Br	-0.352584	-0.411841	-0.496792
H73	H	-1.078989	-1.002336	-0.342764
H74	H	-0.389447	-0.835650	-0.469464
Br75	Br	-0.352556	-0.664691	-0.496769
H76	H	-0.636206	-1.225525	-0.677848
H77	H	-0.636174	-0.433981	-0.287019
