data_functionalizedCrystal
_audit_creation_method	'MofGen! by Chris Wilmer'
_symmetry_space_group_name_H-M	'P1'
_symmetry_Int_Tables_number	1
_symmetry_cell_setting	triclinic
loop_
_symmetry_equiv_pos_as_xyz
  x,y,z
_cell_length_a	13.101039
_cell_length_b	16.109301
_cell_length_c	16.109298
_cell_angle_alpha	96.539166
_cell_angle_beta	86.633336
_cell_angle_gamma	86.646051
loop_
_atom_site_label
_atom_site_type_symbol
_atom_site_fract_x
_atom_site_fract_y
_atom_site_fract_z
O1	O	0.085138	-1.107702	0.102281
O2	O	0.335138	-0.857702	0.352281
O3	O	0.585138	-0.607702	0.602281
O4	O	0.835138	-0.357702	0.852281
O5	O	0.085152	-0.865640	0.115580
O6	O	0.335152	-0.615640	0.365580
O7	O	0.585152	-0.365640	0.615580
O8	O	0.835152	-0.115640	0.865580
O9	O	0.085152	-0.993322	-0.012101
O10	O	0.335152	-0.743322	0.237899
O11	O	0.585152	-0.493322	0.487899
O12	O	0.835152	-0.243322	0.737899
O13	O	0.085138	-0.980019	0.229962
O14	O	0.335138	-0.730019	0.479962
O15	O	0.585138	-0.480019	0.729962
O16	O	0.835138	-0.230019	0.979962
O17	O	-0.085278	-0.984161	-0.002925
O18	O	0.164722	-0.734161	0.247075
O19	O	0.414722	-0.484161	0.497075
O20	O	0.664722	-0.234161	0.747075
O21	O	-0.085277	-0.856479	0.124756
O22	O	0.164723	-0.606479	0.374756
O23	O	0.414723	-0.356479	0.624756
O24	O	0.664723	-0.106479	0.874756
O25	O	-0.085292	-1.098540	0.111458
O26	O	0.164708	-0.848540	0.361458
O27	O	0.414708	-0.598540	0.611458
O28	O	0.664708	-0.348540	0.861458
Zn29	Zn	-0.112344	-0.976055	0.119564
Zn30	Zn	0.137656	-0.726055	0.369564
Zn31	Zn	0.387656	-0.476055	0.619564
Zn32	Zn	0.637656	-0.226055	0.869564
Zn33	Zn	0.112204	-0.988125	0.107474
Zn34	Zn	0.362204	-0.738125	0.357474
Zn35	Zn	0.612204	-0.488125	0.607474
Zn36	Zn	0.862204	-0.238125	0.857474
O37	O	-0.085292	-0.970858	0.239138
O38	O	0.164708	-0.720858	0.489138
O39	O	0.414708	-0.470858	0.739138
O40	O	0.664708	-0.220858	0.989138
C41	C	-0.000060	-0.830085	0.119629
C42	C	0.249940	-0.580085	0.369629
C43	C	0.499940	-0.330085	0.619629
C44	C	0.749940	-0.080085	0.869629
C45	C	-0.000054	-0.737790	0.118014
C46	C	0.249946	-0.487790	0.368014
C47	C	0.499946	-0.237790	0.618014
C48	C	0.749946	0.012210	0.868014
N49	N	-0.265593	-0.967824	0.127814
N50	N	-0.015593	-0.717824	0.377814
N51	N	0.234407	-0.467824	0.627814
N52	N	0.484407	-0.217824	0.877814
C53	C	-0.000059	-0.988204	-0.038488
C54	C	0.249941	-0.738204	0.211512
C55	C	0.499941	-0.488204	0.461512
C56	C	0.749941	-0.238204	0.711512
C57	C	-0.000047	-0.986590	-0.130784
C58	C	0.249953	-0.736590	0.119216
C59	C	0.499953	-0.486590	0.369216
C60	C	0.749953	-0.236590	0.619216
C61	C	-0.474635	-0.956625	0.139047
C62	C	-0.224635	-0.706625	0.389047
C63	C	0.025365	-0.456625	0.639047
C64	C	0.275365	-0.206625	0.889047
C65	C	-0.525511	-1.007560	0.087987
C66	C	-0.275511	-0.757560	0.337987
C67	C	-0.025511	-0.507560	0.587987
C68	C	0.224489	-0.257560	0.837987
C69	C	-0.641830	-1.001329	0.094237
C70	C	-0.391830	-0.751329	0.344237
C71	C	-0.141830	-0.501329	0.594237
C72	C	0.108170	-0.251329	0.844237
C73	C	-0.358306	-0.962855	0.132798
C74	C	-0.108306	-0.712855	0.382798
C75	C	0.141694	-0.462855	0.632798
C76	C	0.391694	-0.212855	0.882798
N77	N	0.265453	-0.996363	0.099217
N78	N	0.515453	-0.746363	0.349217
N79	N	0.765453	-0.496363	0.599217
N80	N	1.015453	-0.246363	0.849217
C81	C	-0.000077	-1.134096	0.107408
C82	C	0.249923	-0.884096	0.357408
C83	C	0.499923	-0.634096	0.607408
C84	C	0.749923	-0.384096	0.857408
C85	C	-0.000077	-1.226391	0.109023
C86	C	0.249923	-0.976391	0.359023
C87	C	0.499923	-0.726391	0.609023
C88	C	0.749923	-0.476391	0.859023
C89	C	-0.000070	-0.515516	0.190022
C90	C	0.249930	-0.265516	0.440022
C91	C	0.499930	-0.015516	0.690022
C92	C	0.749930	0.234484	0.940022
C93	C	-0.000077	-0.428795	0.188499
C94	C	0.249923	-0.178795	0.438499
C95	C	0.499923	0.071205	0.688499
C96	C	0.749923	0.321205	0.938499
C97	C	-0.000064	-0.448672	0.037009
C98	C	0.249936	-0.198672	0.287009
C99	C	0.499936	0.051328	0.537009
C100	C	0.749936	0.301328	0.787009
C101	C	-0.000065	-0.535391	0.038534
C102	C	0.249935	-0.285391	0.288534
C103	C	0.499935	-0.035391	0.538534
C104	C	0.749935	0.214609	0.788534
C105	C	-0.000063	-0.568810	0.115043
C106	C	0.249937	-0.318810	0.365043
C107	C	0.499937	-0.068810	0.615043
C108	C	0.749937	0.181190	0.865043
C109	C	-0.000068	-0.395371	0.111994
C110	C	0.249932	-0.145371	0.361994
C111	C	0.499932	0.104629	0.611994
C112	C	0.749932	0.354629	0.861994
C113	C	-0.000075	-0.301344	0.110342
C114	C	0.249925	-0.051344	0.360342
C115	C	0.499925	0.198656	0.610342
C116	C	0.749925	0.448656	0.860342
C117	C	-0.000057	-0.662842	0.116696
C118	C	0.249943	-0.412842	0.366696
C119	C	0.499943	-0.162842	0.616696
C120	C	0.749943	0.087158	0.866696
C121	C	0.092833	-0.986315	-0.434854
C122	C	0.342833	-0.736315	-0.184854
C123	C	0.592833	-0.486315	0.065146
C124	C	0.842833	-0.236315	0.315146
C125	C	0.092841	-0.987844	-0.348134
C126	C	0.342841	-0.737844	-0.098134
C127	C	0.592841	-0.487844	0.151866
C128	C	0.842841	-0.237844	0.401866
C129	C	-0.092971	-0.977868	-0.338115
C130	C	0.157029	-0.727868	-0.088115
C131	C	0.407029	-0.477868	0.161885
C132	C	0.657029	-0.227868	0.411885
C133	C	-0.092977	-0.976346	-0.424834
C134	C	0.157023	-0.726346	-0.174834
C135	C	0.407023	-0.476346	0.075166
C136	C	0.657023	-0.226346	0.325166
C137	C	-0.000072	-0.980565	-0.473201
C138	C	0.249928	-0.730565	-0.223201
C139	C	0.499928	-0.480565	0.026799
C140	C	0.749928	-0.230565	0.276799
C141	C	-0.000059	-0.983616	-0.299762
C142	C	0.249941	-0.733616	-0.049762
C143	C	0.499941	-0.483616	0.200238
C144	C	0.749941	-0.233616	0.450238
C145	C	-0.000052	-0.985273	-0.205737
C146	C	0.249948	-0.735273	0.044263
C147	C	0.499948	-0.485273	0.294263
C148	C	0.749948	-0.235273	0.544263
C149	C	-0.000079	-0.978910	-0.567232
C150	C	0.249921	-0.728910	-0.317232
C151	C	0.499921	-0.478910	-0.067232
C152	C	0.749921	-0.228910	0.182768
C153	C	-0.000079	-0.975977	0.265525
C154	C	0.249921	-0.725977	0.515525
C155	C	0.499921	-0.475977	0.765525
C156	C	0.749921	-0.225977	1.015525
C157	C	-0.000084	-0.977591	0.357821
C158	C	0.249916	-0.727591	0.607821
C159	C	0.499916	-0.477591	0.857821
C160	C	0.749916	-0.227591	1.107821
H161	H	-0.481709	-1.055847	0.039579
H162	H	-0.231709	-0.805847	0.289579
H163	H	0.018291	-0.555847	0.539579
H164	H	0.268291	-0.305847	0.789579
H165	H	-0.168612	-0.974431	-0.298725
H166	H	0.081388	-0.724431	-0.048725
H167	H	0.331388	-0.474431	0.201275
H168	H	0.581388	-0.224431	0.451275
H169	H	0.168483	-0.989751	-0.474231
H170	H	0.418483	-0.739751	-0.224231
H171	H	0.668483	-0.489751	0.025769
H172	H	0.918483	-0.239751	0.275769
H173	H	-0.168637	-0.971665	-0.456057
H174	H	0.081363	-0.721665	-0.206057
H175	H	0.331363	-0.471665	0.043943
H176	H	0.581363	-0.221665	0.293943
Br177	Br	-0.000092	-0.356469	0.290262
Br178	Br	0.249908	-0.106469	0.540262
Br179	Br	0.499908	0.143531	0.790262
Br180	Br	0.749908	0.393531	1.040262
Br181	Br	-0.547635	-0.876148	0.219728
Br182	Br	-0.297635	-0.626148	0.469728
Br183	Br	-0.047635	-0.376148	0.719728
Br184	Br	0.202365	-0.126148	0.969728
H185	H	-0.000076	-0.542723	0.252321
H186	H	0.249924	-0.292723	0.502321
H187	H	0.499924	-0.042723	0.752321
H188	H	0.749924	0.207277	1.002321
H189	H	-0.000072	-0.421450	-0.025282
H190	H	0.249928	-0.171450	0.224718
H191	H	0.499928	0.078550	0.474718
H192	H	0.749928	0.328550	0.724718
Br193	Br	-0.000067	-0.607725	-0.063231
Br194	Br	0.249933	-0.357725	0.186769
Br195	Br	0.499933	-0.107725	0.436769
Br196	Br	0.749933	0.142275	0.686769
H197	H	0.168494	-0.992527	-0.316916
H198	H	0.418494	-0.742527	-0.066916
H199	H	0.668494	-0.492527	0.183084
H200	H	0.918494	-0.242527	0.433084
