data_functionalizedCrystal
_audit_creation_method	'MofGen! by Chris Wilmer'
_symmetry_space_group_name_H-M	'P1'
_symmetry_Int_Tables_number	1
_symmetry_cell_setting	triclinic
loop_
_symmetry_equiv_pos_as_xyz
  x,y,z
_cell_length_a	6.817900
_cell_length_b	12.200863
_cell_length_c	16.305550
_cell_angle_alpha	94.302169
_cell_angle_beta	103.455250
_cell_angle_gamma	107.143441
loop_
_atom_site_label
_atom_site_type_symbol
_atom_site_fract_x
_atom_site_fract_y
_atom_site_fract_z
V1	V	-4.044949	-0.159681	-0.263118
V2	V	-3.544949	0.340319	0.236882
O3	O	-4.013059	0.006677	-0.258021
O4	O	-3.513059	0.506677	0.241979
O5	O	-4.014671	-0.315662	-0.261403
O6	O	-3.514671	0.184338	0.238597
O7	O	-3.996119	-0.157662	-0.377834
O8	O	-3.496119	0.342338	0.122166
O9	O	-4.031739	-0.152417	-0.140784
O10	O	-3.531739	0.347583	0.359216
V11	V	-4.526285	-0.139731	-0.248475
V12	V	-4.026285	0.360269	0.251525
O13	O	-4.311006	-0.203443	-0.295237
O14	O	-3.811006	0.296557	0.204763
O15	O	-4.710426	-0.095969	-0.216356
O16	O	-4.210426	0.404031	0.283644
O17	O	-4.333357	0.016250	-0.250190
O18	O	-3.833357	0.516250	0.249810
O19	O	-4.675572	-0.306089	-0.253572
O20	O	-4.175572	0.193911	0.246428
O21	O	-4.656892	-0.146995	-0.370809
O22	O	-4.156892	0.353005	0.129191
O23	O	-4.351909	-0.141750	-0.133759
O24	O	-3.851909	0.358250	0.366241
C25	C	-3.864094	-0.353673	-0.257274
C26	C	-3.364094	0.146327	0.242726
C27	C	-3.920622	-0.481193	-0.256637
C28	C	-3.420622	0.018807	0.243363
C29	C	-3.840428	-0.152127	-0.405792
C30	C	-3.340428	0.347873	0.094208
C31	C	-3.881907	-0.151508	-0.499573
C32	C	-3.381907	0.348492	0.000427
C33	C	-4.024079	-0.714666	-0.255477
C34	C	-3.524079	-0.214666	0.244523
C35	C	-3.966500	-0.584745	-0.256122
C36	C	-3.466500	-0.084745	0.243878
C37	C	-4.032713	-0.149110	-0.840317
C38	C	-3.532713	0.350890	-0.340317
C39	C	-3.795832	-0.141992	-0.799385
C40	C	-3.295832	0.358008	-0.299385
C41	C	-3.752769	-0.143111	-0.701891
C42	C	-3.252769	0.356889	-0.201891
C43	C	-3.957895	-0.150299	-0.671270
C44	C	-3.457895	0.349701	-0.171270
C45	C	-4.138198	-0.263590	-0.721958
C46	C	-3.638198	0.236410	-0.221958
C47	C	-4.179987	-0.262949	-0.819507
C48	C	-3.679987	0.237051	-0.319507
C49	C	-4.075138	-0.043843	-0.794417
C50	C	-3.575138	0.456157	-0.294417
C51	C	-4.027104	-0.042946	-0.696574
C52	C	-3.527104	0.457054	-0.196574
C53	C	-3.915625	-0.150975	-0.575733
C54	C	-3.415625	0.349025	-0.075733
C55	C	-4.074994	-0.148442	-0.935856
C56	C	-3.574994	0.351558	-0.435856
C57	C	-4.147277	0.054256	-0.254316
C58	C	-3.647277	0.554256	0.245684
C59	C	-4.069987	0.181774	-0.254959
C60	C	-3.569987	0.681774	0.245041
C61	C	-4.170942	-0.147289	-0.105797
C62	C	-3.670942	0.352711	0.394203
C63	C	-4.108701	-0.147902	-0.012014
C64	C	-3.608701	0.352098	0.487986
H65	H	-3.616731	-0.061655	-0.666823
H66	H	-3.116731	0.438345	-0.166823
H67	H	-3.695304	-0.219614	-0.685639
H68	H	-3.195304	0.280386	-0.185639
H69	H	-3.680107	-0.060152	-0.811704
H70	H	-3.180107	0.439848	-0.311704
H71	H	-4.092101	-0.343302	-0.705188
H72	H	-3.592101	0.156698	-0.205188
H73	H	-4.292450	-0.272947	-0.703050
H74	H	-3.792450	0.227053	-0.203050
H75	H	-4.354987	-0.272885	-0.847504
H76	H	-3.854987	0.227115	-0.347504
H77	H	-4.247696	-0.048050	-0.821235
H78	H	-3.747696	0.451950	-0.321235
H79	H	-3.973682	0.041997	-0.807739
H80	H	-3.473682	0.541997	-0.307739
H81	H	-4.153176	-0.342640	-0.849932
H82	H	-3.653176	0.157360	-0.349932
H83	H	-4.174227	-0.041537	-0.675226
H84	H	-3.674227	0.458463	-0.175226
H85	H	-3.759600	-0.217623	-0.830938
H86	H	-3.259600	0.282377	-0.330938
H87	H	-3.896242	0.040850	-0.662151
H88	H	-3.396242	0.540850	-0.162151
