data_functionalizedCrystal
_audit_creation_method	'MofGen! by Chris Wilmer'
_symmetry_space_group_name_H-M	'P1'
_symmetry_Int_Tables_number	1
_symmetry_cell_setting	triclinic
loop_
_symmetry_equiv_pos_as_xyz
  x,y,z
_cell_length_a	16.625548
_cell_length_b	14.908520
_cell_length_c	14.908308
_cell_angle_alpha	83.639235
_cell_angle_beta	93.277965
_cell_angle_gamma	86.678216
loop_
_atom_site_label
_atom_site_type_symbol
_atom_site_fract_x
_atom_site_fract_y
_atom_site_fract_z
Zn1	Zn	1.185085	0.389851	-0.532572
Zn2	Zn	1.518418	0.723185	-0.199239
Zn3	Zn	1.851752	1.056518	0.134095
Zn4	Zn	1.184994	0.532497	-0.389942
Zn5	Zn	1.518327	0.865830	-0.056609
Zn6	Zn	1.851660	1.199163	0.276724
Zn7	Zn	1.058507	0.381156	-0.381229
Zn8	Zn	1.391840	0.714489	-0.047896
Zn9	Zn	1.725174	1.047823	0.285437
Zn10	Zn	1.041965	0.541172	-0.541251
Zn11	Zn	1.375299	0.874506	-0.207917
Zn12	Zn	1.708632	1.207839	0.125416
O13	O	1.117638	0.461169	-0.461249
O14	O	1.450971	0.794502	-0.127915
O15	O	1.784304	1.127836	0.205418
O16	O	1.297904	0.408782	-0.513666
O17	O	1.631238	0.742115	-0.180333
O18	O	1.964571	1.075448	0.153001
O19	O	1.175099	0.505151	-0.262126
O20	O	1.508433	0.838484	0.071207
O21	O	1.841766	1.171818	0.404541
O22	O	1.082259	0.255645	-0.394027
O23	O	1.415592	0.588978	-0.060693
O24	O	1.748926	0.922311	0.272640
O25	O	1.297837	0.513582	-0.408877
O26	O	1.631170	0.846916	-0.075543
O27	O	1.964504	1.180249	0.257790
O28	O	1.175255	0.262033	-0.505217
O29	O	1.508589	0.595366	-0.171884
O30	O	1.841922	0.928700	0.161449
O31	O	1.082170	0.393962	-0.255724
O32	O	1.415504	0.727295	0.077609
O33	O	1.748837	1.060629	0.410942
O34	O	0.943482	0.402375	-0.402442
O35	O	1.276815	0.735708	-0.069109
O36	O	1.610148	1.069041	0.264225
O37	O	1.054066	0.528369	-0.666760
O38	O	1.387399	0.861702	-0.333427
O39	O	1.720733	1.195036	-0.000093
O40	O	0.931328	0.519938	-0.520009
O41	O	1.264662	0.853271	-0.186676
O42	O	1.597995	1.186604	0.146658
O43	O	1.159215	0.417194	-0.660384
O44	O	1.492549	0.750527	-0.327050
O45	O	1.825882	1.083861	0.006283
O46	O	1.159059	0.660312	-0.417292
O47	O	1.492393	0.993646	-0.083959
O48	O	1.825726	1.326979	0.249375
O49	O	1.053977	0.666686	-0.528458
O50	O	1.387310	1.000020	-0.195124
O51	O	1.720644	1.333353	0.138209
C52	C	0.908149	0.461155	-0.461222
C53	C	1.241482	0.794488	-0.127889
C54	C	1.574816	1.127821	0.205444
C55	C	0.818526	0.461172	-0.461234
C56	C	1.151860	0.794505	-0.127901
C57	C	1.485193	1.127838	0.205433
C58	C	1.104734	0.696343	-0.474782
C59	C	1.438067	1.029676	-0.141449
C60	C	1.771401	1.363010	0.191885
C61	C	1.099286	0.796953	-0.480602
C62	C	1.432619	1.130287	-0.147269
C63	C	1.765953	1.463620	0.186065
C64	C	1.130613	0.225078	-0.447682
C65	C	1.463946	0.558411	-0.114349
C66	C	1.797279	0.891744	0.218985
C67	C	1.136142	0.124470	-0.441901
C68	C	1.469475	0.457803	-0.108567
C69	C	1.802808	0.791136	0.224766
C70	C	0.490348	0.461180	-0.461273
C71	C	0.823682	0.794513	-0.127940
C72	C	1.157015	1.127846	0.205394
C73	C	0.581658	0.461175	-0.461259
C74	C	0.914991	0.794508	-0.127926
C75	C	1.248324	1.127841	0.205407
C76	C	0.654434	0.461176	-0.461253
C77	C	0.987768	0.794509	-0.127920
C78	C	1.321101	1.127843	0.205414
C79	C	0.745750	0.461170	-0.461240
C80	C	1.079083	0.794504	-0.127907
C81	C	1.412416	1.127837	0.205426
C82	C	1.327944	0.461184	-0.461275
C83	C	1.661278	0.794518	-0.127942
C84	C	1.994611	1.127851	0.205391
C85	C	1.417565	0.461191	-0.461287
C86	C	1.750898	0.794524	-0.127953
C87	C	2.084231	1.127857	0.205380
C88	C	1.104806	0.474719	-0.697332
C89	C	1.438139	0.808053	-0.363998
C90	C	1.771472	1.141386	-0.030665
C91	C	1.099337	0.480494	-0.797936
C92	C	1.432671	0.813827	-0.464603
C93	C	1.766004	1.147160	-0.131270
C94	C	1.198572	0.979318	-0.375875
C95	C	1.531905	1.312651	-0.042541
C96	C	1.865238	1.645984	0.290792
C97	C	1.193455	1.073850	-0.381340
C98	C	1.526789	1.407183	-0.048007
C99	C	1.860122	1.740516	0.285327
C100	C	1.083942	1.080552	-0.497002
C101	C	1.417275	1.413885	-0.163669
C102	C	1.750609	1.747218	0.169665
C103	C	1.089058	0.986019	-0.491537
C104	C	1.422391	1.319353	-0.158203
C105	C	1.755725	1.652686	0.175130
C106	C	1.146374	0.935406	-0.430970
C107	C	1.479707	1.268739	-0.097637
C108	C	1.813041	1.602072	0.235697
C109	C	1.151486	0.840872	-0.425501
C110	C	1.484819	1.174205	-0.092167
C111	C	1.818152	1.507538	0.241166
C112	C	1.041977	0.847575	-0.541167
C113	C	1.375310	1.180909	-0.207833
C114	C	1.708643	1.514242	0.125500
C115	C	1.036861	0.942107	-0.546632
C116	C	1.370194	1.275441	-0.213299
C117	C	1.703527	1.608774	0.120035
C118	C	1.198553	0.375556	-0.980344
C119	C	1.531886	0.708890	-0.647011
C120	C	1.865220	1.042223	-0.313677
C121	C	1.193418	0.380979	-1.074871
C122	C	1.526751	0.714312	-0.741538
C123	C	1.860084	1.047645	-0.408204
C124	C	1.083928	0.496755	-1.081518
C125	C	1.417262	0.830089	-0.748185
C126	C	1.750595	1.163422	-0.414852
C127	C	1.089064	0.491333	-0.986991
C128	C	1.422397	0.824666	-0.653658
C129	C	1.755730	1.158000	-0.320325
C130	C	1.146379	0.430732	-0.936408
C131	C	1.479712	0.764066	-0.603074
C132	C	1.813045	1.097399	-0.269741
C133	C	1.151517	0.425315	-0.841879
C134	C	1.484851	0.758649	-0.508546
C135	C	1.818184	1.091982	-0.175213
C136	C	1.042025	0.541087	-0.848528
C137	C	1.375358	0.874420	-0.515195
C138	C	1.708691	1.207753	-0.181861
C139	C	1.036889	0.546509	-0.943055
C140	C	1.370223	0.879842	-0.609722
C141	C	1.703556	1.213176	-0.276388
C142	C	1.130470	0.447606	-0.226080
C143	C	1.463803	0.780940	0.107253
C144	C	1.797137	1.114273	0.440587
C145	C	1.136108	0.441577	-0.125461
C146	C	1.469442	0.774910	0.207872
C147	C	1.802775	1.108244	0.541205
H148	H	1.198153	0.799662	-0.376182
H149	H	1.531486	1.132996	-0.042849
H150	H	1.864820	1.466329	0.290485
H151	H	1.235962	1.109599	-0.336478
H152	H	1.569295	1.442932	-0.003144
H153	H	1.902628	1.776266	0.330189
H154	H	0.999542	0.586018	-0.812745
H155	H	1.332876	0.919351	-0.479412
H156	H	1.666209	1.252684	-0.146079
Cl157	Cl	0.964840	0.622687	-1.006654
Cl158	Cl	1.298173	0.956020	-0.673321
Cl159	Cl	1.631506	1.289354	-0.339988
Cl160	Cl	1.223571	0.349135	-0.778289
Cl161	Cl	1.556904	0.682469	-0.444956
Cl162	Cl	1.890238	1.015802	-0.111623
Cl163	Cl	1.270612	0.299386	-0.916750
Cl164	Cl	1.603945	0.632719	-0.583417
Cl165	Cl	1.937279	0.966052	-0.250084
H166	H	1.235902	0.336046	-1.110640
H167	H	1.569235	0.669380	-0.777307
H168	H	1.902568	1.002713	-0.443973
Cl169	Cl	1.011876	0.572925	-1.145124
Cl170	Cl	1.345210	0.906259	-0.811791
Cl171	Cl	1.678543	1.239592	-0.478457
Cl172	Cl	1.270612	0.915685	-0.299723
Cl173	Cl	1.603945	1.249018	0.033611
Cl174	Cl	1.937279	1.582352	0.366944
H175	H	0.990198	0.983330	-0.595946
H176	H	1.323531	1.316663	-0.262613
H177	H	1.656864	1.649997	0.070721
Cl178	Cl	1.011904	1.144196	-0.573148
Cl179	Cl	1.345237	1.477529	-0.239815
Cl180	Cl	1.678571	1.810863	0.093519
H181	H	0.999472	0.811812	-0.586026
H182	H	1.332805	1.145145	-0.252693
H183	H	1.666138	1.478478	0.080640
