data_functionalizedCrystal
_audit_creation_method	'MofGen! by Chris Wilmer'
_symmetry_space_group_name_H-M	'P1'
_symmetry_Int_Tables_number	1
_symmetry_cell_setting	triclinic
loop_
_symmetry_equiv_pos_as_xyz
  x,y,z
_cell_length_a	10.540510
_cell_length_b	10.654541
_cell_length_c	9.130307
_cell_angle_alpha	89.994959
_cell_angle_beta	90.004221
_cell_angle_gamma	95.501380
loop_
_atom_site_label
_atom_site_type_symbol
_atom_site_fract_x
_atom_site_fract_y
_atom_site_fract_z
O1	O	1.685843	-0.176815	0.121808
O2	O	1.316419	-0.193531	0.121809
O3	O	1.509626	-0.002435	0.121799
O4	O	1.492636	-0.367910	0.121817
O5	O	1.509612	-0.002427	-0.121800
O6	O	1.316404	-0.193522	-0.121790
O7	O	1.685828	-0.176807	-0.121791
Cu8	Cu	1.501115	-0.185164	-0.144033
Cu9	Cu	1.501132	-0.185174	0.144051
O10	O	1.492621	-0.367902	-0.121782
C11	C	1.269109	-0.192281	0.000009
C12	C	1.128160	-0.188554	0.000010
C13	C	0.910656	-0.321307	0.000576
C14	C	1.057250	-0.325282	0.000018
C15	C	1.083418	-0.118558	-0.139097
C16	C	0.936658	-0.115551	-0.139205
C17	C	0.936869	-0.112713	0.137812
C18	C	1.083208	-0.119198	0.139642
C19	C	1.508372	0.044367	0.000001
C20	C	1.504642	0.183811	0.000003
C21	C	1.733139	-0.178057	0.000012
C22	C	1.874087	-0.181784	0.000021
C23	C	1.493875	-0.414705	0.000020
C24	C	1.497606	-0.554149	0.000027
N25	N	1.501112	-0.185156	-0.346656
C26	C	1.735673	0.211725	-0.000016
C27	C	1.849431	0.291192	-0.000028
C28	C	1.845918	0.422211	-0.000024
C29	C	1.728635	0.473765	-0.000002
C30	C	1.614877	0.394298	0.000010
C31	C	1.618402	0.263278	0.000001
C32	C	1.383848	0.366385	0.000040
C33	C	1.387358	0.235365	0.000025
C34	C	1.266564	0.417939	0.000061
C35	C	1.152803	0.338472	0.000063
C36	C	1.156321	0.207446	0.000057
C37	C	1.273600	0.155899	0.000037
C38	C	1.345810	-0.031342	-0.346723
C39	C	1.268173	0.045568	-0.423424
C40	C	1.268191	0.045568	-0.576757
C41	C	1.345852	-0.031352	-0.653394
C42	C	1.423490	-0.108262	-0.576693
C43	C	1.423466	-0.108251	-0.423356
C44	C	1.578783	-0.262081	-0.576626
C45	C	1.578773	-0.262077	-0.423293
C46	C	1.656444	-0.339002	-0.653263
C47	C	1.734090	-0.415907	-0.576562
C48	C	1.734070	-0.415903	-0.423220
C49	C	1.656411	-0.338987	-0.346592
N50	N	1.501145	-0.185171	0.346674
H51	H	1.085627	-0.380367	-0.099862
H52	H	1.345797	-0.031325	-0.221871
O53	O	1.026322	0.394085	0.000080
H54	H	0.971616	0.362244	0.099373
O55	O	1.739470	0.070413	-0.000052
H56	H	1.640665	0.023817	-0.000056
O57	O	1.184458	0.128514	-0.659504
H58	H	1.244752	0.195418	-0.729364
H59	H	1.204940	0.108193	-0.361009
O60	O	0.855051	-0.391876	0.132715
H61	H	0.933277	-0.424906	0.199581
H62	H	1.797285	-0.478540	-0.360779
O63	O	0.883336	-0.178918	-0.276923
H64	H	0.962409	-0.211421	-0.342815
H65	H	1.656390	-0.338973	-0.221740
H66	H	1.086582	-0.380042	0.099739
O67	O	1.975929	0.235592	-0.000054
H68	H	1.959267	0.131136	-0.000069
H69	H	1.345849	-0.031356	-0.778246
H70	H	1.725785	0.580448	0.000019
H71	H	0.867123	-0.374265	-0.098615
O72	O	1.968613	0.507926	-0.000038
H73	H	1.972508	0.568297	-0.099322
H74	H	0.913700	-0.013287	-0.145529
H75	H	1.114248	-0.167162	-0.242616
H76	H	1.797309	-0.478536	-0.638972
H77	H	1.276475	0.049219	0.000023
O78	O	1.146253	0.014768	-0.145967
H79	H	1.071962	0.081876	-0.144440
O80	O	0.880656	-0.169958	0.277487
H81	H	0.807334	-0.248287	0.250250
O82	O	1.121077	-0.186657	0.275971
H83	H	1.171713	-0.269233	0.244429
O84	O	1.148240	0.013034	0.150754
H85	H	1.252924	0.009104	0.157544
H86	H	1.656447	-0.339002	-0.778115
H87	H	0.914753	-0.010058	0.138748
H88	H	1.063685	0.142750	0.000074
O89	O	1.262764	0.559251	0.000052
H90	H	1.361568	0.605851	0.000019
