data_functionalizedCrystal
_audit_creation_method	'MofGen! by Chris Wilmer'
_symmetry_space_group_name_H-M	'P1'
_symmetry_Int_Tables_number	1
_symmetry_cell_setting	triclinic
loop_
_symmetry_equiv_pos_as_xyz
  x,y,z
_cell_length_a	17.038272
_cell_length_b	14.519709
_cell_length_c	13.596369
_cell_angle_alpha	90.006934
_cell_angle_beta	89.999553
_cell_angle_gamma	87.395851
loop_
_atom_site_label
_atom_site_type_symbol
_atom_site_fract_x
_atom_site_fract_y
_atom_site_fract_z
O1	O	-1.037692	-0.200289	-0.081672
O2	O	-0.810056	-0.197108	-0.081701
O3	O	-0.929910	-0.064922	-0.081677
O4	O	-0.917839	-0.332475	-0.081696
O5	O	-0.929898	-0.064913	0.081906
O6	O	-0.810044	-0.197100	0.081882
O7	O	-1.037680	-0.200280	0.081911
Zn8	Zn	-0.923860	-0.198689	0.107869
Zn9	Zn	-0.923876	-0.198700	-0.107659
O10	O	-0.917827	-0.332467	0.081887
C11	C	-0.780917	-0.194212	0.000087
C12	C	-0.694110	-0.185582	0.000076
C13	C	-0.929341	-0.030515	0.000115
C14	C	-0.927655	0.071996	0.000115
C15	C	-1.066819	-0.203177	0.000121
C16	C	-1.153626	-0.211807	0.000125
C17	C	-0.644125	-0.264814	0.000071
C18	C	-0.562561	-0.256700	0.000085
C19	C	-0.530985	-0.169352	0.000097
C20	C	-0.580977	-0.090114	0.000105
C21	C	-0.662539	-0.098229	0.000098
C22	C	-0.285180	-0.140683	0.000126
C23	C	-0.203612	-0.132574	0.000130
C24	C	-0.185201	-0.299161	0.000112
C25	C	-0.266766	-0.307269	0.000099
C26	C	-0.316751	-0.228030	0.000112
C27	C	-0.447614	-0.161056	0.000109
C28	C	-0.400120	-0.236327	0.000107
C29	C	-0.918395	-0.366874	0.000093
C30	C	-0.920081	-0.469384	0.000086
N31	N	-0.923855	-0.198681	0.254960
C32	C	-0.921449	0.447366	0.000089
C33	C	-0.923173	0.342926	0.000096
C34	C	-0.924552	0.259684	0.000103
C35	C	-0.926276	0.155238	0.000108
N36	N	-0.923887	-0.198701	-0.254751
C37	C	-0.923875	-0.198701	0.656251
C38	C	-0.923867	-0.198698	0.544600
C39	C	-0.923866	-0.198692	0.455609
C40	C	-0.923857	-0.198688	0.343951
H41	H	-0.669827	-0.335942	0.000061
O42	O	-0.716458	-0.012772	0.000100
H43	H	-0.680801	0.049330	0.000101
H44	H	-0.521865	-0.321220	0.000080
H45	H	-0.555261	-0.018993	0.000129
H46	H	-0.292469	-0.378396	0.000078
H47	H	-0.425833	-0.307445	0.000103
H48	H	-0.177906	-0.061442	0.000139
H49	H	-0.325869	-0.076161	0.000137
O50	O	-0.413552	-0.066848	0.000122
H51	H	-0.433615	-0.028462	-0.066548
O52	O	-0.131292	-0.384624	0.000118
H53	H	-0.069271	-0.364311	0.000137
