data_functionalizedCrystal
_audit_creation_method	'MofGen! by Chris Wilmer'
_symmetry_space_group_name_H-M	'P1'
_symmetry_Int_Tables_number	1
_symmetry_cell_setting	triclinic
loop_
_symmetry_equiv_pos_as_xyz
  x,y,z
_cell_length_a	16.109302
_cell_length_b	10.723022
_cell_length_c	15.186229
_cell_angle_alpha	89.999093
_cell_angle_beta	89.992447
_cell_angle_gamma	96.035496
loop_
_atom_site_label
_atom_site_type_symbol
_atom_site_fract_x
_atom_site_fract_y
_atom_site_fract_z
O1	O	-1.104077	0.160388	0.073266
O2	O	-0.604077	0.660388	0.573266
O3	O	-0.862132	0.180348	0.073259
O4	O	-0.362132	0.680348	0.573259
O5	O	-0.988686	-0.011282	0.073259
O6	O	-0.488686	0.488718	0.573259
O7	O	-0.977523	0.352018	0.073265
O8	O	-0.477523	0.852018	0.573265
O9	O	-0.988671	-0.011271	-0.073198
O10	O	-0.488671	0.488729	0.426802
O11	O	-0.862117	0.180359	-0.073199
O12	O	-0.362117	0.680359	0.426801
O13	O	-1.104062	0.160399	-0.073191
O14	O	-0.604062	0.660399	0.426809
Zn15	Zn	-0.983087	0.170381	-0.096448
Zn16	Zn	-0.483087	0.670381	0.403552
Zn17	Zn	-0.983107	0.170366	0.096516
Zn18	Zn	-0.483107	0.670366	0.596516
O19	O	-0.977508	0.352029	-0.073192
O20	O	-0.477508	0.852029	0.426808
C21	C	-0.831145	0.179545	0.000029
C22	C	-0.331145	0.679545	0.500029
C23	C	-0.738835	0.177120	0.000026
C24	C	-0.238835	0.677120	0.500026
C25	C	-0.987866	-0.057766	0.000032
C26	C	-0.487866	0.442234	0.500032
C27	C	-0.985437	-0.196288	0.000035
C28	C	-0.485437	0.303712	0.500035
C29	C	-1.053736	-0.415371	0.000041
C30	C	-0.553736	0.084629	0.500041
C31	C	-1.056249	-0.272202	0.000038
C32	C	-0.556249	0.227798	0.500038
C33	C	-1.135049	0.161202	0.000040
C34	C	-0.635049	0.661202	0.500040
C35	C	-1.227358	0.163627	0.000049
C36	C	-0.727358	0.663627	0.500049
C37	C	-0.526453	0.171520	-0.079799
C38	C	-0.026453	0.671520	0.420201
C39	C	-0.439720	0.169229	-0.079796
C40	C	0.060280	0.669229	0.420204
C41	C	-0.439747	0.169223	0.079880
C42	C	0.060253	0.669223	0.579880
C43	C	-0.526479	0.171506	0.079876
C44	C	-0.026479	0.671506	0.579876
C45	C	-0.569830	0.172660	0.000034
C46	C	-0.069830	0.672660	0.500034
C47	C	-0.396364	0.168087	0.000041
C48	C	0.103636	0.668087	0.500041
C49	C	-0.302323	0.165602	0.000045
C50	C	0.197677	0.665602	0.500045
C51	C	-0.663877	0.175143	0.000030
C52	C	-0.163877	0.675143	0.500030
C53	C	-0.978327	0.398513	0.000038
C54	C	-0.478327	0.898513	0.500038
C55	C	-0.980757	0.537035	0.000040
C56	C	-0.480757	1.037035	0.500040
N57	N	-0.983080	0.170390	-0.228141
N58	N	-0.483080	0.670390	0.271859
C59	C	-1.033949	0.246075	-0.453861
C60	C	-0.533949	0.746075	0.046139
C61	C	-1.033958	0.246066	-0.546050
C62	C	-0.533958	0.746066	-0.046050
C63	C	-0.932250	0.094653	-0.546065
C64	C	-0.432250	0.594653	-0.046065
C65	C	-0.932246	0.094656	-0.453878
C66	C	-0.432246	0.594656	0.046122
C67	C	-0.983094	0.170375	-0.407778
C68	C	-0.483094	0.670375	0.092222
C69	C	-0.983107	0.170362	-0.592155
C70	C	-0.483107	0.670362	-0.092155
C71	C	-0.983116	0.170352	-0.692111
C72	C	-0.483116	0.670352	-0.192111
C73	C	-0.983086	0.170383	-0.307815
C74	C	-0.483086	0.670383	0.192185
N75	N	-0.983121	0.170347	0.228208
N76	N	-0.483121	0.670347	0.728208
H77	H	-1.118734	-0.231218	0.000070
H78	H	-0.618734	0.268782	0.500070
H79	H	-1.075370	0.307708	-0.583567
H80	H	-0.575370	0.807708	-0.083567
C81	C	-1.135634	-0.503496	0.000045
C82	C	-0.635634	-0.003496	0.500045
H83	H	-1.181747	-0.455070	0.000040
H84	H	-0.681747	0.044930	0.500040
H85	H	-1.137850	-0.554888	0.051118
H86	H	-0.637850	-0.054888	0.551118
H87	H	-1.137839	-0.554882	-0.051034
H88	H	-0.637839	-0.054882	0.448966
C89	C	-0.574200	0.172766	0.167694
C90	C	-0.074200	0.672766	0.667694
H91	H	-0.632064	0.174279	0.156255
H92	H	-0.132064	0.674279	0.656255
H93	H	-0.554067	0.245115	0.200498
H94	H	-0.054067	0.745115	0.700498
H95	H	-0.565921	0.099660	0.200499
H96	H	-0.065921	0.599660	0.700499
C97	C	-1.089890	0.329345	-0.403153
C98	C	-0.589890	0.829345	0.096847
H99	H	-1.120185	0.374417	-0.443806
H100	H	-0.620185	0.874417	0.056194
H101	H	-1.056153	0.386764	-0.367196
H102	H	-0.556153	0.886764	0.132804
H103	H	-1.127861	0.278211	-0.367187
H104	H	-0.627861	0.778211	0.132813
H105	H	-0.922949	-0.237263	0.000039
H106	H	-0.422949	0.262737	0.500039
C107	C	-0.898859	-0.374841	0.000036
C108	C	-0.398859	0.125159	0.500036
H109	H	-0.852747	-0.423266	0.000030
H110	H	-0.352747	0.076734	0.500030
H111	H	-0.896654	-0.323447	0.051106
H112	H	-0.396654	0.176553	0.551106
H113	H	-0.896645	-0.323456	-0.051046
H114	H	-0.396645	0.176544	0.448954
C115	C	-0.876301	0.011397	-0.596774
C116	C	-0.376301	0.511397	-0.096774
H117	H	-0.846014	-0.033689	-0.556123
H118	H	-0.346014	0.466311	-0.056123
H119	H	-0.838335	0.062533	-0.632738
H120	H	-0.338335	0.562533	-0.132738
H121	H	-0.910037	-0.046029	-0.632736
H122	H	-0.410037	0.453971	-0.132736
H123	H	-0.890833	0.033005	-0.416356
H124	H	-0.390833	0.533005	0.083644
H125	H	-0.404407	0.168300	-0.144804
H126	H	0.095593	0.668300	0.355196
C127	C	-0.574140	0.172754	-0.167621
C128	C	-0.074140	0.672754	0.332379
H129	H	-0.535882	0.171728	-0.215165
H130	H	-0.035882	0.671728	0.284835
H131	H	-0.602054	0.246359	-0.170956
H132	H	-0.102054	0.746359	0.329044
H133	H	-0.613894	0.100904	-0.170928
H134	H	-0.113894	0.600904	0.329072
H135	H	-0.404440	0.168284	0.144884
H136	H	0.095560	0.668284	0.644884
