data_functionalizedCrystal
_audit_creation_method	'MofGen! by Chris Wilmer'
_symmetry_space_group_name_H-M	'P1'
_symmetry_Int_Tables_number	1
_symmetry_cell_setting	triclinic
loop_
_symmetry_equiv_pos_as_xyz
  x,y,z
_cell_length_a	16.992694
_cell_length_b	16.053789
_cell_length_c	10.654550
_cell_angle_alpha	92.865537
_cell_angle_beta	87.576577
_cell_angle_gamma	92.715794
loop_
_atom_site_label
_atom_site_type_symbol
_atom_site_fract_x
_atom_site_fract_y
_atom_site_fract_z
O1	O	1.044812	0.069325	0.271445
O2	O	0.816512	0.069349	0.268524
O3	O	0.935911	0.069331	0.087698
O4	O	0.925413	0.069343	0.452270
O5	O	0.929948	-0.069528	0.077650
O6	O	0.810549	-0.069510	0.258475
O7	O	1.038849	-0.069534	0.261396
Zn8	Zn	0.923752	-0.091569	0.258340
Zn9	Zn	0.931609	0.091384	0.271580
O10	O	0.919450	-0.069516	0.442222
C11	C	0.784297	-0.000077	0.259739
C12	C	0.697193	-0.000068	0.248521
N13	N	0.918396	-0.216429	0.249304
C14	C	0.647541	-0.000065	0.356772
C15	C	0.565697	-0.000077	0.346222
C16	C	0.533506	-0.000086	0.227420
C17	C	0.583164	-0.000091	0.119161
C18	C	0.665006	-0.000085	0.129711
C19	C	0.289669	-0.000109	0.183691
C20	C	0.207820	-0.000113	0.173149
C21	C	0.190359	-0.000100	0.400211
C22	C	0.272204	-0.000089	0.410751
C23	C	0.321854	-0.000099	0.302492
N24	N	0.449848	-0.000095	0.216633
N25	N	0.405510	-0.000096	0.313279
C26	C	0.964516	-0.260123	0.327174
C27	C	0.960780	-0.347529	0.320846
C28	C	0.910920	-0.391241	0.236654
C29	C	0.864798	-0.347542	0.158776
C30	C	0.868539	-0.260137	0.165099
C31	C	0.894590	-0.652651	0.209051
C32	C	0.890851	-0.740063	0.202737
C33	C	0.986834	-0.740044	0.364805
C34	C	0.990567	-0.652637	0.371126
C35	C	0.944449	-0.608945	0.293243
N36	N	0.907098	-0.480585	0.230187
N37	N	0.948275	-0.519603	0.299705
C38	C	1.071063	-0.000106	0.270181
C39	C	1.158168	-0.000110	0.281400
C40	C	0.932158	-0.000098	0.035809
C41	C	0.929852	-0.000096	-0.103833
N42	N	0.936971	0.216244	0.280606
C43	C	1.000153	-0.000104	-0.177244
C44	C	0.997981	-0.000093	-0.308452
C45	C	0.855203	-0.000072	-0.292826
C46	C	0.857375	-0.000076	-0.161620
C47	C	0.923202	-0.000086	0.494111
C48	C	0.925509	-0.000082	0.633753
H49	H	0.525273	-0.000074	0.434372
H50	H	0.330085	-0.000118	0.095538
C51	C	0.091239	0.071278	0.525235
C52	C	0.135779	-0.000099	0.519202
H53	H	0.057541	0.071272	0.598695
H54	H	0.125601	0.119694	0.528142
H55	H	0.060359	0.071264	0.452965
H56	H	0.166664	-0.000082	0.591467
H57	H	0.101413	-0.048528	0.516306
C58	C	0.788476	-0.000066	-0.487018
C59	C	0.775539	-0.000062	-0.356351
H60	H	0.739292	-0.000067	-0.526231
H61	H	0.819524	0.048352	-0.508216
H62	H	0.815374	-0.048495	-0.515225
H63	H	0.748645	0.048371	-0.328142
H64	H	0.744478	-0.048485	-0.335144
H65	H	0.556947	-0.000110	0.022429
H66	H	0.181614	-0.000119	0.076401
C67	C	0.246719	-0.000092	0.634132
C68	C	0.307585	-0.000088	0.541342
H69	H	0.268564	-0.000095	0.714752
H70	H	0.217235	0.048326	0.628802
H71	H	0.213087	-0.048521	0.621781
H72	H	0.341214	0.048344	0.553688
H73	H	0.337082	-0.048511	0.546676
C74	C	1.066882	-0.000125	0.016946
C75	C	1.079817	-0.000118	-0.113721
H76	H	1.116066	-0.000137	0.056156
H77	H	1.039991	0.048298	0.045163
H78	H	1.035826	-0.048549	0.038135
H79	H	1.110869	0.048310	-0.134911
H80	H	1.106721	-0.048546	-0.141948
H81	H	1.024382	-0.775627	0.428212
C82	C	0.962385	-0.445827	0.483217
C83	C	1.011475	-0.395564	0.406437
H84	H	0.993687	-0.475485	0.536050
H85	H	0.928028	-0.411732	0.533517
H86	H	0.932159	-0.484361	0.432152
H87	H	1.041697	-0.357025	0.457502
H88	H	1.045847	-0.429661	0.356133
H89	H	1.055227	-0.000097	-0.368218
H90	H	0.830983	-0.224563	0.101689
H91	H	0.705432	-0.000087	0.041562
C92	C	1.085079	-0.661402	0.530672
C93	C	1.045382	-0.604591	0.463663
H94	H	1.118921	-0.631738	0.587796
H95	H	1.047797	-0.695489	0.576040
H96	H	1.115450	-0.695497	0.473622
H97	H	1.015006	-0.570500	0.520712
H98	H	1.082669	-0.570489	0.418292
C99	C	0.716021	-0.000063	-0.159343
C100	C	0.780095	-0.000071	-0.080916
H101	H	0.668315	-0.000063	-0.109517
H102	H	0.720221	0.048358	-0.207330
H103	H	0.716066	-0.048489	-0.214356
H104	H	0.780053	0.048358	-0.025909
H105	H	0.775893	-0.048497	-0.032908
C106	C	1.059021	-0.268893	0.486726
C107	C	1.019326	-0.212079	0.419720
H108	H	1.092863	-0.239232	0.543853
H109	H	1.021738	-0.302981	0.532090
H110	H	1.089392	-0.302986	0.429674
H111	H	0.988950	-0.177989	0.476771
H112	H	1.056614	-0.177976	0.374353
H113	H	0.673744	-0.000057	0.453513
C114	C	0.796358	-0.731301	0.043151
C115	C	0.836044	-0.788110	0.110178
H116	H	0.762528	-0.760965	-0.013991
H117	H	0.765982	-0.697209	0.100179
H118	H	0.833653	-0.697210	-0.002210
H119	H	0.798749	-0.822197	0.155546
H120	H	0.866421	-0.822217	0.053142
H121	H	0.824205	-0.383139	0.090220
C122	C	0.793217	-0.554402	0.197665
C123	C	0.843866	-0.604645	0.123474
H124	H	0.761897	-0.524763	0.144835
H125	H	0.759951	-0.588508	0.249779
H126	H	0.823457	-0.515850	0.248681
H127	H	0.813625	-0.643201	0.072465
H128	H	0.877135	-0.570536	0.071338
