data_functionalizedCrystal
_audit_creation_method	'MofGen! by Chris Wilmer'
_symmetry_space_group_name_H-M	'P1'
_symmetry_Int_Tables_number	1
_symmetry_cell_setting	triclinic
loop_
_symmetry_equiv_pos_as_xyz
  x,y,z
_cell_length_a	18.215407
_cell_length_b	29.839131
_cell_length_c	18.215399
_cell_angle_alpha	89.966717
_cell_angle_beta	89.983176
_cell_angle_gamma	90.041868
loop_
_atom_site_label
_atom_site_type_symbol
_atom_site_fract_x
_atom_site_fract_y
_atom_site_fract_z
Zn1	Zn	1.124966	-0.178842	-0.416101
Zn2	Zn	1.624966	0.321158	0.083899
Zn3	Zn	1.124845	-0.253974	-0.293028
Zn4	Zn	1.624845	0.246026	0.206972
Zn5	Zn	1.001905	-0.178860	-0.293048
Zn6	Zn	1.501905	0.321140	0.206952
Zn7	Zn	1.001828	-0.253946	-0.416053
Zn8	Zn	1.501828	0.246054	0.083947
O9	O	1.063386	-0.216406	-0.354558
O10	O	1.563386	0.283594	0.145442
O11	O	1.227934	-0.188813	-0.399787
O12	O	1.727934	0.311187	0.100213
O13	O	1.108518	-0.244030	-0.190047
O14	O	1.608518	0.255970	0.309953
O15	O	1.018311	-0.115990	-0.309400
O16	O	1.518311	0.384010	0.190600
O17	O	1.227845	-0.244012	-0.309366
O18	O	1.727845	0.255988	0.190634
O19	O	1.108724	-0.115977	-0.399806
O20	O	1.608724	0.384023	0.100194
O21	O	1.018194	-0.188843	-0.190061
O22	O	1.518194	0.311157	0.309939
O23	O	0.898910	-0.188816	-0.309354
O24	O	1.398910	0.311184	0.190646
O25	O	1.018182	-0.243964	-0.519044
O26	O	1.518182	0.256036	-0.019044
O27	O	0.898854	-0.243982	-0.399725
O28	O	1.398854	0.256018	0.100275
O29	O	1.108650	-0.188785	-0.519079
O30	O	1.608650	0.311215	-0.019079
O31	O	1.108444	-0.316838	-0.309320
O32	O	1.608444	0.183162	0.190680
O33	O	1.018065	-0.316817	-0.399705
O34	O	1.518065	0.183183	0.100295
C35	C	0.872180	-0.216398	-0.354537
C36	C	1.372180	0.283602	0.145463
C37	C	0.790381	-0.216405	-0.354545
C38	C	1.290381	0.283595	0.145455
C39	C	0.602177	-0.245175	-0.401542
C40	C	1.102177	0.254825	0.098458
C41	C	0.525318	-0.245177	-0.401551
C42	C	1.025318	0.254823	0.098449
C43	C	0.525347	-0.187644	-0.307589
C44	C	1.025347	0.312356	0.192411
C45	C	0.602204	-0.187641	-0.307584
C46	C	1.102204	0.312359	0.192416
C47	C	0.640617	-0.216409	-0.354560
C48	C	1.140617	0.283591	0.145440
C49	C	0.486901	-0.216414	-0.354574
C50	C	0.986901	0.283586	0.145426
C51	C	0.403567	-0.216415	-0.354583
C52	C	0.903567	0.283585	0.145417
C53	C	0.723956	-0.216407	-0.354551
C54	C	1.223956	0.283593	0.145449
C55	C	1.063253	-0.333128	-0.354521
C56	C	1.563253	0.166872	0.145479
C57	C	1.063263	-0.383063	-0.354530
C58	C	1.563263	0.116937	0.145470
C59	C	1.110532	-0.692704	-0.307563
C60	C	1.610532	-0.192704	0.192437
C61	C	1.110623	-0.880377	-0.307591
C62	C	1.610623	-0.380377	0.192409
O63	O	1.150707	-0.904640	-0.267629
O64	O	1.650707	-0.404640	0.232371
N65	N	1.063538	-0.903848	-0.354613
N66	N	1.563538	-0.403848	0.145387
C67	C	1.016431	-0.880397	-0.401635
C68	C	1.516431	-0.380397	0.098365
O69	O	0.976391	-0.904666	-0.441636
O70	O	1.476391	-0.404666	0.058364
C71	C	1.016345	-0.692725	-0.401609
C72	C	1.516345	-0.192725	0.098391
C73	C	1.063427	-0.669257	-0.354579
C74	C	1.563427	-0.169257	0.145421
C75	C	1.157611	-0.669236	-0.260536
C76	C	1.657611	-0.169236	0.239464
C77	C	1.157585	-0.622320	-0.260527
C78	C	1.657585	-0.122320	0.239473
C79	C	1.110480	-0.598873	-0.307544
C80	C	1.610480	-0.098873	0.192456
C81	C	1.063401	-0.622341	-0.354570
C82	C	1.563401	-0.122341	0.145430
C83	C	0.969242	-0.669275	-0.448634
C84	C	1.469242	-0.169275	0.051366
C85	C	0.969226	-0.622354	-0.448625
C86	C	1.469226	-0.122354	0.051375
C87	C	1.016308	-0.598886	-0.401595
C88	C	1.516308	-0.098886	0.098405
C89	C	1.016270	-0.551978	-0.401577
C90	C	1.516270	-0.051978	0.098423
N91	N	1.063354	-0.528508	-0.354554
N92	N	1.563354	-0.028508	0.145446
C93	C	1.110460	-0.551955	-0.307538
C94	C	1.610460	-0.051955	0.192462
C95	C	1.016479	-0.978928	-0.401644
C96	C	1.516479	-0.478928	0.098356
C97	C	1.016500	-1.025845	-0.401649
C98	C	1.516500	-0.525845	0.098351
C99	C	1.110692	-1.025822	-0.307606
C100	C	1.610692	-0.525822	0.192394
C101	C	1.110668	-0.978904	-0.307598
C102	C	1.610668	-0.478904	0.192402
C103	C	1.063564	-0.955457	-0.354622
C104	C	1.563564	-0.455457	0.145378
C105	C	1.110401	-0.453430	-0.307521
C106	C	1.610401	0.046570	0.192479
C107	C	1.110369	-0.406510	-0.307514
C108	C	1.610369	0.093490	0.192486
C109	C	1.016179	-0.406537	-0.401559
C110	C	1.516179	0.093463	0.098441
C111	C	1.016208	-0.453453	-0.401564
C112	C	1.516208	0.046547	0.098436
C113	C	1.063325	-0.476898	-0.354543
C114	C	1.563325	0.023102	0.145457
O115	O	0.976213	-0.527686	-0.441523
O116	O	1.476213	-0.027686	0.058477
O117	O	1.150506	-0.527678	-0.267554
O118	O	1.650506	-0.027678	0.232446
C119	C	1.110558	-0.739619	-0.307572
C120	C	1.610558	-0.239619	0.192428
C121	C	1.063479	-0.763088	-0.354598
C122	C	1.563479	-0.263088	0.145402
C123	C	1.016374	-0.739640	-0.401615
C124	C	1.516374	-0.239640	0.098385
C125	C	1.063500	-0.810005	-0.354604
C126	C	1.563500	-0.310005	0.145396
C127	C	1.110605	-0.833453	-0.307587
C128	C	1.610605	-0.333453	0.192413
C129	C	1.157689	-0.809982	-0.260565
C130	C	1.657689	-0.309982	0.239435
C131	C	1.157663	-0.763067	-0.260555
C132	C	1.657663	-0.263067	0.239445
C133	C	0.969290	-0.763111	-0.448637
C134	C	1.469290	-0.263111	0.051363
C135	C	0.969319	-0.810026	-0.448642
C136	C	1.469319	-0.310026	0.051358
C137	C	1.016424	-0.833474	-0.401625
C138	C	1.516424	-0.333474	0.098375
C139	C	1.255339	-0.216414	-0.354579
C140	C	1.755339	0.283586	0.145421
C141	C	1.337138	-0.216417	-0.354589
C142	C	1.837138	0.283583	0.145411
C143	C	1.063421	-0.216370	-0.546511
C144	C	1.563421	0.283630	-0.046511
C145	C	1.063435	-0.216354	-0.628310
C146	C	1.563435	0.283646	-0.128310
C147	C	1.063539	-0.099227	-0.354610
C148	C	1.563539	0.400773	0.145390
C149	C	1.063605	-0.049293	-0.354633
C150	C	1.563605	0.450707	0.145367
C151	C	1.016444	-0.187599	-0.816512
C152	C	1.516444	0.312401	-0.316512
C153	C	1.016456	-0.187590	-0.893371
C154	C	1.516456	0.312410	-0.393371
C155	C	1.110515	-0.245056	-0.893345
C156	C	1.610515	0.254944	-0.393345
C157	C	1.110498	-0.245067	-0.816488
C158	C	1.610498	0.254933	-0.316488
C159	C	1.063464	-0.216336	-0.778073
C160	C	1.563464	0.283664	-0.278073
C161	C	1.063493	-0.216316	-0.931789
C162	C	1.563493	0.283684	-0.431789
C163	C	1.063508	-0.216306	-1.015123
C164	C	1.563508	0.283694	-0.515123
C165	C	1.063448	-0.216346	-0.694734
C166	C	1.563448	0.283654	-0.194734
C167	C	1.063394	-0.216409	-0.163351
C168	C	1.563394	0.283591	0.336649
C169	C	1.063521	-0.216298	-0.081553
C170	C	1.563521	0.283702	0.418447
H171	H	0.633503	-0.164213	-0.269325
H172	H	1.133503	0.335787	0.230675
O173	O	0.970760	-0.159632	-0.930597
O174	O	1.470760	0.340368	-0.430597
C175	C	0.929231	-0.134287	-0.880207
C176	C	1.429231	0.365713	-0.380207
H177	H	0.959367	-0.132740	-0.825425
H178	H	1.459367	0.367260	-0.325425
H179	H	0.921431	-0.098887	-0.902433
H180	H	1.421431	0.401113	-0.402433
H181	H	0.873316	-0.150737	-0.872016
H182	H	1.373316	0.349263	-0.372016
O183	O	1.156177	-0.383783	-0.261804
O184	O	1.656177	0.116217	0.238196
C185	C	1.197746	-0.414543	-0.220298
C186	C	1.697746	0.085457	0.279702
H187	H	1.200290	-0.447972	-0.250454
H188	H	1.700290	0.052028	0.249546
H189	H	1.255728	-0.400955	-0.212498
H190	H	1.755728	0.099045	0.287502
H191	H	1.170834	-0.419575	-0.164382
H192	H	1.670834	0.080425	0.335618
O193	O	0.970715	-0.159758	-0.779114
O194	O	1.470715	0.340242	-0.279114
C195	C	0.923131	-0.185343	-0.734653
C196	C	1.423131	0.314657	-0.234653
H197	H	0.949044	-0.219390	-0.723121
H198	H	1.449044	0.280610	-0.223121
H199	H	0.913277	-0.167051	-0.680617
H200	H	1.413277	0.332949	-0.180617
H201	H	0.868594	-0.190275	-0.764267
H202	H	1.368594	0.309725	-0.264267
H203	H	0.633451	-0.268599	-0.439794
H204	H	1.133451	0.231401	0.060206
H205	H	1.149047	-1.044921	-0.269324
H206	H	1.649047	-0.544921	0.230676
H207	H	0.978154	-1.044949	-0.439939
H208	H	1.478154	-0.544949	0.060061
O209	O	1.156231	-0.273002	-0.930548
O210	O	1.656231	0.226998	-0.430548
C211	C	1.197742	-0.298360	-0.880137
C212	C	1.697742	0.201640	-0.380137
H213	H	1.167583	-0.299925	-0.825349
H214	H	1.667583	0.200075	-0.325349
H215	H	1.205556	-0.333753	-0.902326
H216	H	1.705556	0.166247	-0.402326
H217	H	1.253652	-0.281910	-0.871974
H218	H	1.753652	0.218090	-0.371974
H219	H	1.148789	-0.268469	-0.785190
H220	H	1.648789	0.231531	-0.285190
H221	H	0.494062	-0.164223	-0.269342
H222	H	0.994062	0.335777	0.230658
O223	O	0.488059	-0.273100	-0.447291
O224	O	0.988059	0.226900	0.052709
C225	C	0.506866	-0.263329	-0.520667
C226	C	1.006866	0.236671	-0.020667
H227	H	0.562689	-0.246058	-0.522237
H228	H	1.062689	0.253942	-0.022237
H229	H	0.509473	-0.295777	-0.553568
H230	H	1.009473	0.204223	-0.053568
H231	H	0.463645	-0.240253	-0.545528
H232	H	0.963645	0.259747	-0.045528
O233	O	1.156071	-0.476253	-0.261818
O234	O	1.656071	0.023747	0.238182
C235	C	1.114227	-0.503435	-0.214236
C236	C	1.614227	-0.003435	0.285764
H237	H	1.058440	-0.510491	-0.240133
H238	H	1.558440	-0.010491	0.259867
H239	H	1.144233	-0.536411	-0.204415
H240	H	1.644233	-0.036411	0.295585
H241	H	1.106171	-0.485384	-0.159684
H242	H	1.606171	0.014616	0.340316
H243	H	0.930869	-0.603266	-0.486920
H244	H	1.430869	-0.103266	0.013080
H245	H	0.978120	-0.959841	-0.439938
H246	H	1.478120	-0.459841	0.060062
H247	H	1.195926	-0.603216	-0.222233
H248	H	1.695926	-0.103216	0.277767
H249	H	0.930899	-0.688375	-0.486928
H250	H	1.430899	-0.188375	0.013072
H251	H	1.195974	-0.688322	-0.222250
H252	H	1.695974	-0.188322	0.277750
O253	O	1.156475	-0.956178	-0.261892
O254	O	1.656475	-0.456178	0.238108
C255	C	1.198035	-0.986940	-0.220383
C256	C	1.698035	-0.486940	0.279617
H257	H	1.200575	-1.020370	-0.250536
H258	H	1.700575	-0.520370	0.249464
H259	H	1.256020	-0.973356	-0.212581
H260	H	1.756020	-0.473356	0.287419
H261	H	1.171120	-0.991969	-0.164467
H262	H	1.671120	-0.491969	0.335533
O263	O	0.970448	-0.476183	-0.447315
O264	O	1.470448	0.023817	0.052685
C265	C	0.928851	-0.445424	-0.488795
C266	C	1.428851	0.054576	0.011205
H267	H	0.958972	-0.411957	-0.491356
H268	H	1.458972	0.088043	0.008644
H269	H	0.920977	-0.458957	-0.546777
H270	H	1.420977	0.041043	-0.046777
H271	H	0.872971	-0.440486	-0.461795
H272	H	1.372971	0.059514	0.038205
H273	H	0.977824	-0.387439	-0.439837
H274	H	1.477824	0.112561	0.060163
H275	H	1.196042	-0.829081	-0.222280
H276	H	1.696042	-0.329081	0.277720
O277	O	1.203367	-0.740323	-0.214771
O278	O	1.703367	-0.240323	0.285229
C279	C	1.187323	-0.751824	-0.141411
C280	C	1.687323	-0.251824	0.358589
H281	H	1.159042	-0.785905	-0.139871
H282	H	1.659042	-0.285905	0.360129
H283	H	1.240458	-0.753416	-0.108463
H284	H	1.740458	-0.253416	0.391537
H285	H	1.149496	-0.725450	-0.116578
H286	H	1.649496	-0.225450	0.383422
O287	O	0.923555	-0.832751	-0.494399
O288	O	1.423555	-0.332751	0.005601
C289	C	0.881965	-0.801989	-0.535880
C290	C	1.381965	-0.301989	-0.035880
H291	H	0.912092	-0.768524	-0.538438
H292	H	1.412092	-0.268524	-0.038438
H293	H	0.874091	-0.815520	-0.593863
H294	H	1.374091	-0.315520	-0.093863
H295	H	0.826085	-0.797048	-0.508882
H296	H	1.326085	-0.297048	-0.008882
O297	O	0.923491	-0.740288	-0.494206
O298	O	1.423491	-0.240288	0.005794
C299	C	0.875956	-0.713208	-0.452255
C300	C	1.375956	-0.213208	0.047745
H301	H	0.901947	-0.706182	-0.396509
H302	H	1.401947	-0.206182	0.103491
H303	H	0.866047	-0.680211	-0.482218
H304	H	1.366047	-0.180211	0.017782
H305	H	0.821438	-0.731332	-0.444115
H306	H	1.321438	-0.231332	0.055885
