data_functionalizedCrystal
_audit_creation_method	'MofGen! by Chris Wilmer'
_symmetry_space_group_name_H-M	'P1'
_symmetry_Int_Tables_number	1
_symmetry_cell_setting	triclinic
loop_
_symmetry_equiv_pos_as_xyz
  x,y,z
_cell_length_a	6.817900
_cell_length_b	11.452831
_cell_length_c	12.200875
_cell_angle_alpha	81.382333
_cell_angle_beta	107.143593
_cell_angle_gamma	108.696887
loop_
_atom_site_label
_atom_site_type_symbol
_atom_site_fract_x
_atom_site_fract_y
_atom_site_fract_z
V1	V	-4.076243	-0.169164	-0.323894
O2	O	-4.054672	0.007844	-0.352418
O3	O	-4.035253	-0.335149	-0.288316
O4	O	-4.045850	-0.166687	-0.480377
O5	O	-4.044001	-0.161784	-0.159028
V6	V	-4.556578	-0.147977	-0.308228
O7	O	-4.344496	-0.215639	-0.358260
O8	O	-4.738522	-0.101501	-0.273862
O9	O	-4.374361	0.018008	-0.343806
O10	O	-4.695546	-0.324984	-0.279704
O11	O	-4.706216	-0.155356	-0.473095
O12	O	-4.363764	-0.150454	-0.151745
C13	C	-3.881474	-0.375608	-0.274598
C14	C	-3.929366	-0.511304	-0.246552
C15	C	-4.050849	-0.728697	-0.301572
C16	C	-4.001351	-0.588450	-0.330566
C17	C	-3.894990	-0.160717	-0.519590
C18	C	-3.951473	-0.159790	-0.647296
C19	C	-4.054845	-0.158095	-0.881108
C20	C	-3.997313	-0.159037	-0.750998
C21	C	-4.191482	0.058462	-0.357520
C22	C	-4.122829	0.194156	-0.385573
C23	C	-4.177965	-0.156427	-0.112526
C24	C	-4.100721	-0.157348	0.015180
H25	H	-3.904363	-0.549077	-0.153163
N26	N	-4.032692	-0.541095	-0.447728
N27	N	-3.931799	-0.562170	-0.509351
H28	H	-3.953931	-0.528726	-0.592097
H29	H	-4.147798	-0.768063	-0.478955
N30	N	-4.019541	-0.776105	-0.184429
N31	N	-4.174392	-0.848202	-0.150614
H32	H	-4.152284	-0.881685	-0.067880
