data_functionalizedCrystal
_audit_creation_method	'MofGen! by Chris Wilmer'
_symmetry_space_group_name_H-M	'P1'
_symmetry_Int_Tables_number	1
_symmetry_cell_setting	triclinic
loop_
_symmetry_equiv_pos_as_xyz
  x,y,z
_cell_length_a	17.699083
_cell_length_b	17.699092
_cell_length_c	16.176319
_cell_angle_alpha	89.994879
_cell_angle_beta	89.998611
_cell_angle_gamma	83.284691
loop_
_atom_site_label
_atom_site_type_symbol
_atom_site_fract_x
_atom_site_fract_y
_atom_site_fract_z
O1	O	1.004082	0.095713	-0.068628
O2	O	0.783704	0.108165	-0.068654
O3	O	0.900116	-0.008250	-0.068638
O4	O	0.887670	0.212128	-0.068644
O5	O	0.900100	-0.008257	0.068855
O6	O	0.783688	0.108158	0.068839
O7	O	1.004066	0.095705	0.068866
Cu8	Cu	0.893875	0.101931	0.081406
Cu9	Cu	0.893894	0.101940	-0.081195
O10	O	0.887654	0.212120	0.068850
C11	C	0.755499	0.107715	0.000089
C12	C	0.671480	0.106377	0.000079
C13	C	0.622862	0.174710	0.000077
C14	C	0.543918	0.173448	0.000088
C15	C	0.513595	0.103851	0.000094
C16	C	0.562220	0.035513	0.000098
C17	C	0.641162	0.036776	0.000093
C18	C	0.243857	0.030418	0.000119
C19	C	0.164909	0.029160	0.000121
C20	C	0.146613	0.167089	0.000113
C21	C	0.225555	0.168352	0.000109
C22	C	0.274173	0.100014	0.000117
C23	C	0.359772	0.101384	0.000107
C24	C	0.427998	0.102481	0.000098
C25	C	0.899661	-0.036450	0.000107
C26	C	0.898319	-0.120468	0.000103
C27	C	1.032271	0.096155	0.000121
C28	C	1.116289	0.097494	0.000125
C29	C	0.897700	-0.159932	-0.074846
C30	C	0.896435	-0.238875	-0.074847
C31	C	0.895795	-0.278353	0.000102
C32	C	0.896412	-0.238884	0.075056
C33	C	0.897672	-0.159942	0.075056
C34	C	0.891332	-0.557249	0.075057
C35	C	0.890075	-0.636197	0.075050
C36	C	0.890095	-0.636182	-0.074846
C37	C	0.891355	-0.557240	-0.074846
C38	C	0.891968	-0.517777	0.000108
C39	C	0.893338	-0.432178	0.000108
C40	C	0.894430	-0.363952	0.000102
N41	N	0.893867	0.101924	0.195772
C42	C	0.888109	0.240321	0.000103
C43	C	0.889450	0.324339	0.000101
N44	N	0.893908	0.101940	-0.195560
C45	C	0.945430	0.050397	0.239043
C46	C	0.945434	0.050396	0.325590
C47	C	0.893878	0.101927	0.368864
C48	C	0.842310	0.153457	0.325587
C49	C	0.842303	0.153453	0.239041
C50	C	0.842336	0.153471	0.674615
C51	C	0.842348	0.153472	0.761167
C52	C	0.945467	0.050414	0.761164
C53	C	0.945460	0.050410	0.674618
C54	C	0.893889	0.101937	0.631349
C55	C	0.893885	0.101936	0.537504
C56	C	0.893886	0.101932	0.462707
H57	H	0.250239	0.225025	0.000100
C58	C	0.093126	0.242263	0.000115
N59	N	0.052841	0.298883	0.000116
C60	C	1.002146	-0.006293	0.191449
N61	N	1.044864	-0.048996	0.155604
H62	H	0.140224	-0.027517	0.000127
H63	H	0.889592	-0.668321	-0.135877
H64	H	0.680748	-0.018868	0.000094
H65	H	0.800347	0.195427	0.639392
H66	H	0.889552	-0.668338	0.136086
H67	H	0.891847	-0.525130	0.136089
C68	C	0.297327	-0.044756	0.000122
N69	N	0.337604	-0.101381	0.000124
H70	H	0.504335	0.229091	0.000086
H71	H	0.987420	0.008438	0.360821
C72	C	0.895703	-0.282313	0.157500
N73	N	0.895170	-0.315023	0.219599
C74	C	0.898356	-0.116533	0.157506
N75	N	0.898869	-0.083838	0.219609
C76	C	0.528863	-0.041044	0.000106
N77	N	0.503738	-0.098708	0.000109
C78	C	1.002189	-0.006274	0.808768
N79	N	1.044912	-0.048970	0.844623
C80	C	0.898404	-0.116512	-0.157296
N81	N	0.898930	-0.083810	-0.219400
C82	C	1.002173	-0.006279	0.627021
N83	N	1.044889	-0.048982	0.591173
H84	H	0.800362	0.195436	0.796399
C85	C	0.785591	0.210134	0.373192
N86	N	0.742868	0.252825	0.409047
C87	C	0.785586	0.210144	0.191444
N88	N	0.742865	0.252845	0.155594
H89	H	0.895934	-0.271003	-0.135877
C90	C	0.892058	-0.513817	-0.157295
N91	N	0.892584	-0.481112	-0.219397
C92	C	0.656208	0.251272	0.000072
N93	N	0.681323	0.308942	0.000072
