data_functionalizedCrystal
_audit_creation_method	'MofGen! by Chris Wilmer'
_symmetry_space_group_name_H-M	'P1'
_symmetry_Int_Tables_number	1
_symmetry_cell_setting	triclinic
loop_
_symmetry_equiv_pos_as_xyz
  x,y,z
_cell_length_a	23.532407
_cell_length_b	14.185569
_cell_length_c	15.625429
_cell_angle_alpha	120.547738
_cell_angle_beta	83.576757
_cell_angle_gamma	76.924672
loop_
_atom_site_label
_atom_site_type_symbol
_atom_site_fract_x
_atom_site_fract_y
_atom_site_fract_z
O1	O	0.734822	0.135217	0.142756
O2	O	1.234822	0.635217	0.642756
O3	O	0.568044	0.141576	0.160158
O4	O	1.068044	0.641576	0.660158
O5	O	0.663976	0.085941	0.007255
O6	O	1.163976	0.585941	0.507255
O7	O	0.638891	0.190851	0.295660
O8	O	1.138891	0.690851	0.795660
O9	O	0.692315	-0.097326	-0.037909
O10	O	1.192315	0.402674	0.462091
O11	O	0.596383	-0.041692	0.114994
O12	O	1.096383	0.458308	0.614994
O13	O	0.763161	-0.048051	0.097592
O14	O	1.263161	0.451949	0.597592
Cu15	Cu	0.682360	-0.061605	0.102169
Cu16	Cu	1.182360	0.438395	0.602169
Cu17	Cu	0.648846	0.155130	0.155581
Cu18	Cu	1.148846	0.655130	0.655581
O19	O	0.667229	0.007584	0.250495
O20	O	1.167229	0.507584	0.750495
C21	C	0.561020	0.049785	0.137134
C22	C	1.061020	0.549785	0.637134
C23	C	0.497871	0.049313	0.135805
C24	C	0.997871	0.549313	0.635805
N25	N	0.705936	-0.214045	0.064602
N26	N	1.205936	0.285955	0.564602
C27	C	0.556011	-0.494782	0.303471
C28	C	1.056011	0.005218	0.803471
C29	C	0.573873	-0.610155	0.275021
C30	C	1.073873	-0.110155	0.775021
C31	C	0.658833	-0.659362	0.139675
C32	C	1.158833	-0.159362	0.639675
C33	C	0.640976	-0.543992	0.168111
C34	C	1.140976	-0.043992	0.668111
C35	C	0.589565	-0.461710	0.250010
C36	C	1.089565	0.038290	0.750010
C37	C	0.674531	-0.510920	0.114650
C38	C	1.174531	-0.010920	0.614650
C39	C	0.656677	-0.395558	0.143087
C40	C	1.156677	0.104442	0.643087
C41	C	0.605269	-0.313269	0.224985
C42	C	1.105269	0.186731	0.724985
C43	C	0.571712	-0.346348	0.278448
C44	C	1.071712	0.153652	0.778448
C45	C	0.725944	-0.593202	0.032756
C46	C	1.225944	-0.093202	0.532756
C47	C	0.759499	-0.560130	-0.020705
C48	C	1.259499	-0.060130	0.479295
C49	C	0.741643	-0.444768	0.007727
C50	C	1.241643	0.055232	0.507727
C51	C	0.690235	-0.362479	0.089625
C52	C	1.190235	0.137521	0.589625
C53	C	0.775201	-0.411689	-0.045735
C54	C	1.275201	0.088311	0.454265
C55	C	0.757347	-0.296328	-0.017298
C56	C	1.257347	0.203672	0.482702
C57	C	0.672381	-0.247117	0.118062
C58	C	1.172381	0.252883	0.618062
C59	C	0.094481	0.079138	0.217923
C60	C	0.594481	0.579138	0.717923
C61	C	0.035146	0.078681	0.216684
C62	C	0.535146	0.578681	0.716684
O63	O	-0.005574	0.106336	0.292810
O64	O	0.494426	0.606336	0.792810
N65	N	0.017273	0.045618	0.125786
N66	N	0.517273	0.545618	0.625786
C67	C	0.058740	0.012998	0.036118
C68	C	0.558740	0.512998	0.536118
O69	O	0.038090	-0.015168	-0.041312
O70	O	0.538090	0.484832	0.458688
C71	C	0.118075	0.013447	0.037356
C72	C	0.618075	0.513447	0.537356
C73	C	0.135942	0.046524	0.128263
C74	C	0.635942	0.546524	0.628263
C75	C	0.112349	0.112211	0.308822
C76	C	0.612349	0.612211	0.808822
C77	C	0.171679	0.112669	0.310061
C78	C	0.671679	0.612669	0.810061
C79	C	0.213141	0.080055	0.220401
C80	C	0.713141	0.580055	0.720401
C81	C	0.195272	0.046983	0.129501
C82	C	0.695272	0.546983	0.629501
C83	C	0.159542	-0.019180	-0.052313
C84	C	0.659542	0.480820	0.447687
C85	C	0.218880	-0.018729	-0.051067
C86	C	0.718880	0.481271	0.448933
C87	C	0.236747	0.014348	0.039839
C88	C	0.736747	0.514348	0.539839
C89	C	0.296064	0.014827	0.041080
C90	C	0.796064	0.514827	0.541080
N91	N	0.313937	0.047891	0.131978
N92	N	0.813937	0.547891	0.631978
C93	C	0.272475	0.080505	0.221638
C94	C	0.772475	0.580505	0.721638
C95	C	-0.065867	0.012055	0.033525
C96	C	0.434133	0.512055	0.533525
C97	C	-0.125201	0.011614	0.032288
C98	C	0.374799	0.511614	0.532288
C99	C	-0.148791	0.077295	0.212854
C100	C	0.351209	0.577295	0.712854
C101	C	-0.089456	0.077744	0.214092
C102	C	0.410544	0.577744	0.714092
C103	C	-0.047994	0.045119	0.124423
C104	C	0.452006	0.545119	0.624423
C105	C	0.397074	0.081466	0.224233
C106	C	0.897074	0.581466	0.724233
C107	C	0.456409	0.081927	0.225465
C108	C	0.956409	0.581927	0.725465
C109	C	0.479995	0.016240	0.044899
C110	C	0.979995	0.516240	0.544899
C111	C	0.420664	0.015785	0.043667
C112	C	0.920664	0.515785	0.543667
C113	C	0.379204	0.048398	0.133342
C114	C	0.879204	0.548398	0.633342
O115	O	0.336817	-0.012818	-0.035007
O116	O	0.836817	0.487182	0.464993
O117	O	0.293137	0.108651	0.299052
O118	O	0.793137	0.608651	0.799052
C119	C	0.770185	0.043743	0.120617
C120	C	1.270185	0.543743	0.620617
C121	C	0.833333	0.044222	0.121947
C122	C	1.333333	0.544222	0.621947
N123	N	0.625275	0.307567	0.193141
N124	N	1.125275	0.807567	0.693141
C125	C	0.679819	-0.019109	-0.052217
C126	C	1.179819	0.480891	0.447783
C127	C	0.684801	-0.059086	-0.162138
C128	C	1.184801	0.440914	0.337862
C129	C	0.623937	0.308888	-0.400569
C130	C	1.123937	0.808888	0.099431
C131	C	0.628620	0.271290	-0.503863
C132	C	1.128620	0.771290	-0.003863
C133	C	0.659513	0.071504	-0.553084
C134	C	1.159513	0.571504	-0.053084
C135	C	0.654835	0.109086	-0.449792
C136	C	1.154835	0.609086	0.050208
C137	C	0.637046	0.227779	-0.373541
C138	C	1.137046	0.727779	0.126459
C139	C	0.667944	0.027977	-0.422765
C140	C	1.167944	0.527977	0.077235
C141	C	0.663264	0.065557	-0.319482
C142	C	1.163264	0.565557	0.180518
C143	C	0.645474	0.184245	-0.243225
C144	C	1.145474	0.684245	0.256775
C145	C	0.632365	0.265359	-0.270258
C146	C	1.132365	0.765359	0.229742
C147	C	0.685729	-0.090716	-0.499017
C148	C	1.185729	0.409284	0.000983
C149	C	0.698839	-0.171825	-0.471990
C150	C	1.198839	0.328175	0.028010
C151	C	0.694162	-0.134246	-0.368705
C152	C	1.194162	0.365754	0.131295
C153	C	0.676372	-0.015557	-0.292449
C154	C	1.176372	0.484443	0.207551
C155	C	0.707271	-0.215360	-0.341673
C156	C	1.207271	0.284640	0.158327
C157	C	0.702590	-0.177780	-0.238389
C158	C	1.202590	0.322220	0.261611
C159	C	0.671691	0.022022	-0.189165
C160	C	1.171691	0.522022	0.310835
C161	C	0.651386	0.112636	0.309968
C162	C	1.151386	0.612636	0.809968
C163	C	0.646403	0.152621	0.419890
C164	C	1.146403	0.652621	0.919890
H165	H	0.630513	-0.180121	0.184746
H166	H	1.130513	0.319879	0.684746
Br167	Br	0.608234	0.426445	-0.166767
Br168	Br	1.108234	0.926445	0.333233
Br169	Br	0.581041	-0.156702	0.263588
Br170	Br	1.081041	0.343298	0.763588
H171	H	0.801360	-0.627136	-0.087387
H172	H	1.301360	-0.127136	0.412613
Br173	Br	-0.065215	0.122635	0.337469
Br174	Br	0.434785	0.622635	0.837469
H175	H	0.514143	-0.427785	0.370155
H176	H	1.014143	0.072215	0.870155
H177	H	0.784671	-0.269402	-0.060831
H178	H	1.284671	0.230598	0.439169
Br179	Br	0.480652	0.126827	0.348849
Br180	Br	0.980652	0.626827	0.848849
H181	H	0.078596	0.138767	0.381837
H182	H	0.578596	0.638767	0.881837
Br183	Br	0.536275	-0.028023	-0.076778
Br184	Br	1.036275	0.471977	0.423222
Br185	Br	0.844978	-0.523361	-0.156868
Br186	Br	1.344978	-0.023361	0.343132
Br187	Br	0.195919	0.157557	0.433440
Br188	Br	0.695919	0.657557	0.933440
Br189	Br	0.501930	-0.234678	0.389586
Br190	Br	1.001930	0.265322	0.889586
Br191	Br	0.599805	0.469974	-0.297078
Br192	Br	1.099805	0.969974	0.202922
H193	H	0.363324	0.108019	0.297254
H194	H	0.863324	0.608019	0.797254
Br195	Br	0.610821	0.381380	-0.540537
Br196	Br	1.110821	0.881380	-0.040537
H197	H	-0.182560	0.103846	0.285859
H198	H	0.317440	0.603846	0.785859
Br199	Br	-0.009602	-0.032217	-0.088178
Br200	Br	0.490398	0.467783	0.411822
H201	H	0.657211	0.118674	-0.127077
H202	H	1.157211	0.618674	0.372923
Br203	Br	0.683648	-0.089574	-0.656573
Br204	Br	1.183648	0.410426	-0.156573
H205	H	0.700694	-0.726368	0.072994
H206	H	1.200694	-0.226368	0.572994
H207	H	-0.139745	-0.015303	-0.041733
H208	H	0.360255	0.484697	0.458267
Br209	Br	0.722973	-0.332903	-0.575478
Br210	Br	1.222973	0.167097	-0.075478
Br211	Br	0.135306	-0.064048	-0.175688
Br212	Br	0.635306	0.435952	0.324312
H213	H	0.252637	-0.045298	-0.124089
H214	H	0.752637	0.454702	0.375911
Br215	Br	0.639121	0.235251	-0.103051
Br216	Br	1.139121	0.735251	0.396949
Br217	Br	0.731398	-0.376436	-0.445162
Br218	Br	1.231398	0.123564	0.054838
Br219	Br	0.396414	-0.029108	-0.079707
Br220	Br	0.896414	0.470892	0.420293
Br221	Br	0.720383	-0.287856	-0.201703
Br222	Br	1.220383	0.212144	0.298297
H223	H	0.689534	-0.121309	-0.583114
H224	H	1.189534	0.378691	-0.083114
H225	H	0.546544	-0.637072	0.318564
H226	H	1.046544	-0.137072	0.818564
H227	H	0.740480	-0.687134	0.009608
H228	H	1.240480	-0.187134	0.509608
