data_functionalizedCrystal
_audit_creation_method	'MofGen! by Chris Wilmer'
_symmetry_space_group_name_H-M	'P1'
_symmetry_Int_Tables_number	1
_symmetry_cell_setting	triclinic
loop_
_symmetry_equiv_pos_as_xyz
  x,y,z
_cell_length_a	16.109301
_cell_length_b	10.489741
_cell_length_c	14.586319
_cell_angle_alpha	89.996488
_cell_angle_beta	89.999213
_cell_angle_gamma	84.000327
loop_
_atom_site_label
_atom_site_type_symbol
_atom_site_fract_x
_atom_site_fract_y
_atom_site_fract_z
O1	O	1.104141	0.163947	-0.076182
O2	O	0.862205	0.184350	-0.076196
O3	O	0.988678	-0.011529	-0.076183
O4	O	0.977668	0.359826	-0.076195
O5	O	0.988670	-0.011532	0.076298
O6	O	0.862196	0.184347	0.076284
O7	O	1.104132	0.163944	0.076299
Cu8	Cu	0.983164	0.174145	0.090214
Cu9	Cu	0.983174	0.174149	-0.090112
O10	O	0.977659	0.359823	0.076286
C11	C	0.831221	0.183522	0.000042
C12	C	0.738910	0.181044	0.000037
C13	C	0.517319	0.291514	0.000044
C14	C	0.430584	0.289175	0.000050
C15	C	0.449026	0.056771	0.000053
C16	C	0.535759	0.059111	0.000054
C17	C	0.569903	0.176486	0.000045
C18	C	0.396435	0.171808	0.000050
C19	C	0.302393	0.169272	0.000056
C20	C	0.663950	0.179022	0.000040
C21	C	0.987842	-0.059050	0.000057
C22	C	0.985354	-0.200644	0.000055
C23	C	0.904883	-0.267616	0.000043
C24	C	0.942893	-0.360292	0.075226
C25	C	0.942920	-0.360264	-0.075108
C26	C	1.023397	-0.291454	0.075300
C27	C	1.023414	-0.291417	-0.075102
C28	C	1.061482	-0.384066	0.000100
C29	C	1.135117	0.164772	0.000058
C30	C	1.227427	0.167250	0.000058
C31	C	0.978495	0.407344	0.000044
C32	C	0.980983	0.548938	0.000040
N33	N	0.983162	0.174142	0.217046
N34	N	0.983182	0.174142	-0.216944
C35	C	1.039183	0.087436	0.452058
C36	C	1.039186	0.087433	0.548040
C37	C	0.927155	0.260852	0.548038
C38	C	0.927149	0.260848	0.452058
C39	C	0.983168	0.174141	0.404071
C40	C	0.983176	0.174142	0.596032
C41	C	0.983178	0.174140	0.700099
C42	C	0.983165	0.174142	0.299997
H43	H	0.421215	-0.038791	0.000067
H44	H	0.908865	-0.390732	-0.138675
C45	C	0.897335	-0.400894	0.159895
C46	C	0.815378	-0.341402	0.159536
C47	C	0.773379	-0.378780	0.237508
H48	H	0.925287	-0.376192	0.213351
H49	H	0.896476	-0.491315	0.159564
H50	H	0.816242	-0.251000	0.159876
H51	H	0.787405	-0.366096	0.106098
H52	H	0.772519	-0.469202	0.237177
H53	H	0.801336	-0.354077	0.290959
H54	H	0.717764	-0.338431	0.237271
C55	C	0.816682	-0.200061	-0.000059
C56	C	0.804668	-0.124242	-0.078904
C57	C	0.723426	-0.062007	-0.079033
H58	H	0.808698	-0.147291	0.052786
H59	H	0.777703	-0.262056	0.000475
H60	H	0.843635	-0.062254	-0.079430
H61	H	0.812635	-0.176981	-0.131762
H62	H	0.684448	-0.124002	-0.078499
H63	H	0.715449	-0.009244	-0.026184
H64	H	0.715261	-0.010566	-0.132532
C65	C	0.554551	0.418815	-0.000006
C66	C	0.641763	0.396251	-0.000033
C67	C	0.676087	0.513493	-0.000090
H68	H	0.536641	0.466271	0.053152
H69	H	0.536593	0.466191	-0.053201
H70	H	0.659714	0.348895	0.053157
H71	H	0.659697	0.348814	-0.053187
H72	H	0.658129	0.560868	-0.053285
H73	H	0.658171	0.560940	0.053070
H74	H	0.735263	0.498199	-0.000116
H75	H	1.057413	-0.261117	0.138933
H76	H	1.127704	-0.434450	0.000146
C77	C	1.068640	-0.250706	-0.159961
C78	C	1.026231	-0.285138	-0.238474
C79	C	1.067855	-0.247636	-0.316670
H80	H	1.123959	-0.292153	-0.160627
H81	H	1.070309	-0.160447	-0.159087
H82	H	1.024571	-0.375379	-0.239348
H83	H	0.970914	-0.243694	-0.237838
H84	H	1.069524	-0.157378	-0.315796
H85	H	1.123173	-0.289087	-0.317327
H86	H	1.039083	-0.270982	-0.369950
H87	H	0.387773	0.382843	0.000051
H88	H	0.881546	0.331449	0.587118
C89	C	0.592718	-0.065923	0.000007
C90	C	0.544255	-0.169215	-0.000017
C91	C	0.596696	-0.284408	-0.000069
H92	H	0.626952	-0.070023	0.053167
H93	H	0.626925	-0.069904	-0.053187
H94	H	0.510062	-0.165236	0.053172
H95	H	0.510022	-0.165158	-0.053173
H96	H	0.630903	-0.288390	-0.053263
H97	H	0.630928	-0.288495	0.053092
H98	H	0.563822	-0.354506	-0.000094
C99	C	1.100032	-0.006852	0.400123
C100	C	1.149072	-0.082809	0.462697
C101	C	1.205127	-0.169697	0.414891
H102	H	1.134992	0.038891	0.362671
H103	H	1.069825	-0.060032	0.362708
H104	H	1.179277	-0.029636	0.500096
H105	H	1.114135	-0.128580	0.500150
H106	H	1.174920	-0.222877	0.377475
H107	H	1.240081	-0.123943	0.377441
H108	H	1.238402	-0.221252	0.457339
C109	C	1.099913	-0.006647	0.600306
C110	C	1.087915	0.011883	0.694633
C111	C	1.143835	-0.074776	0.742808
H112	H	1.155516	0.007148	0.584683
H113	H	1.090369	-0.091805	0.584633
H114	H	1.097466	0.097022	0.710300
H115	H	1.032323	-0.001921	0.710283
H116	H	1.134291	-0.159934	0.727135
H117	H	1.199435	-0.060974	0.727178
H118	H	1.135697	-0.062223	0.806813
H119	H	0.881530	0.331455	0.412984
