data_functionalizedCrystal
_audit_creation_method	'MofGen! by Chris Wilmer'
_symmetry_space_group_name_H-M	'P1'
_symmetry_Int_Tables_number	1
_symmetry_cell_setting	triclinic
loop_
_symmetry_equiv_pos_as_xyz
  x,y,z
_cell_length_a	6.817900
_cell_length_b	11.452831
_cell_length_c	10.773894
_cell_angle_alpha	83.899974
_cell_angle_beta	96.645922
_cell_angle_gamma	108.696887
loop_
_atom_site_label
_atom_site_type_symbol
_atom_site_fract_x
_atom_site_fract_y
_atom_site_fract_z
V1	V	-3.967650	-0.164839	-0.353163
O2	O	-3.936515	0.012549	-0.384264
O3	O	-3.938588	-0.331299	-0.314370
O4	O	-3.884792	-0.160273	-0.523786
O5	O	-3.990683	-0.159661	-0.173398
V6	V	-4.453237	-0.143861	-0.336081
O7	O	-4.224380	-0.210855	-0.390634
O8	O	-4.646703	-0.097845	-0.298610
O9	O	-4.259092	0.022599	-0.374874
O10	O	-4.601768	-0.321249	-0.304980
O11	O	-4.547600	-0.149039	-0.515846
O12	O	-4.312888	-0.148428	-0.165458
C13	C	-3.789408	-0.371942	-0.299412
C14	C	-3.846704	-0.508012	-0.268831
C15	C	-3.949740	-0.724671	-0.328823
C16	C	-3.890521	-0.584036	-0.360437
C17	C	-3.720785	-0.153779	-0.566542
C18	C	-3.734452	-0.151147	-0.705788
C19	C	-3.913056	-0.155709	-0.772660
C20	C	-3.927185	-0.152989	-0.916579
C21	C	-4.071615	0.063235	-0.389827
C22	C	-3.993556	0.199304	-0.420416
C23	C	-4.140238	-0.154925	-0.122695
C24	C	-4.105810	-0.157551	0.016552
H25	H	-3.987217	-0.761668	-0.522235
N26	N	-4.101755	-0.163530	-0.707381
H27	H	-4.064911	-0.164358	-0.613824
H28	H	-4.216872	-0.241819	-0.727986
N29	N	-3.958135	-0.776356	-0.193948
H30	H	-3.920761	-0.706299	-0.137167
H31	H	-3.856169	-0.824524	-0.173939
N32	N	-3.855062	-0.559674	-0.133943
H33	H	-3.753078	-0.607823	-0.113823
H34	H	-4.000094	-0.616146	-0.120557
H35	H	-3.884185	-0.545014	-0.462264
H36	H	-3.591998	-0.145220	-0.755084
H37	H	-3.784718	-0.147061	-0.965869
N38	N	-4.294528	-0.165381	-0.918177
H39	H	-4.257690	-0.166211	-0.824619
H40	H	-4.409637	-0.243671	-0.938785
