data_functionalizedCrystal
_audit_creation_method	'MofGen! by Chris Wilmer'
_symmetry_space_group_name_H-M	'P1'
_symmetry_Int_Tables_number	1
_symmetry_cell_setting	triclinic
loop_
_symmetry_equiv_pos_as_xyz
  x,y,z
_cell_length_a	23.532355
_cell_length_b	14.421503
_cell_length_c	15.944551
_cell_angle_alpha	89.996660
_cell_angle_beta	83.163118
_cell_angle_gamma	90.001755
loop_
_atom_site_label
_atom_site_type_symbol
_atom_site_fract_x
_atom_site_fract_y
_atom_site_fract_z
O1	O	0.755676	0.076988	0.101745
O2	O	0.589866	0.077017	0.116544
O3	O	0.677299	0.076993	-0.013170
O4	O	0.668243	0.077012	0.231459
O5	O	0.677285	-0.077230	-0.013150
O6	O	0.589852	-0.077206	0.116563
O7	O	0.755662	-0.077236	0.101765
Cu8	Cu	0.672755	-0.091303	0.109166
Cu9	Cu	0.672773	0.091084	0.109143
O10	O	0.668229	-0.077212	0.231478
C11	C	0.568641	-0.000091	0.116184
C12	C	0.505418	-0.000080	0.115072
N13	N	0.672747	-0.219584	0.109181
C14	C	0.632311	-0.469227	0.169134
C15	C	0.683773	-0.531037	0.184994
C16	C	0.672761	-0.408745	0.109161
C17	C	0.621313	-0.531029	0.093321
C18	C	0.672770	-0.591467	0.109144
C19	C	0.724249	-0.469195	0.125058
C20	C	0.661755	-0.469181	0.033353
C21	C	0.713254	-0.530964	0.049180
C22	C	0.672755	-0.303484	0.109173
C23	C	0.672782	-0.696726	0.109131
C24	C	0.113369	-0.084186	0.108094
C25	C	0.053966	-0.084190	0.107036
O26	O	0.023238	-0.155685	0.106469
N27	N	0.024263	-0.000123	0.106501
C28	C	0.053968	0.083953	0.107015
O29	O	0.023249	0.155458	0.106462
C30	C	0.113371	0.083956	0.108067
C31	C	0.143069	-0.000117	0.108611
C32	C	0.143068	-0.168252	0.108637
C33	C	0.202467	-0.168248	0.109697
C34	C	0.232168	-0.084178	0.110214
C35	C	0.202469	-0.000113	0.109671
C36	C	0.143075	0.168031	0.108576
C37	C	0.202482	0.168026	0.109627
C38	C	0.232181	0.083954	0.110171
C39	C	0.291568	0.083961	0.111247
N40	N	0.321271	-0.000106	0.111782
C41	C	0.291571	-0.084175	0.111266
C42	C	-0.070782	0.083941	0.104804
C43	C	-0.130185	0.083939	0.103758
C44	C	-0.130183	-0.084204	0.103778
C45	C	-0.070780	-0.084201	0.104830
C46	C	-0.041080	-0.000126	0.105340
C47	C	0.416313	-0.084161	0.113492
C48	C	0.475718	-0.084149	0.114555
C49	C	0.475711	0.083994	0.114531
C50	C	0.416311	0.083983	0.113472
C51	C	0.386614	-0.000102	0.112950
O52	O	0.322334	0.155420	0.111811
O53	O	0.322298	-0.155668	0.111808
C54	C	0.776887	-0.000126	0.102125
C55	C	0.840110	-0.000131	0.103237
C56	C	0.676916	-0.000118	-0.044451
C57	C	0.675789	-0.000119	-0.137687
N58	N	0.672785	0.219366	0.109121
C59	C	0.618900	-0.000096	-0.352049
C60	C	0.645310	-0.076142	-0.413286
C61	C	0.673750	-0.000111	-0.308395
C62	C	0.645337	0.075910	-0.413289
C63	C	0.671776	-0.000100	-0.473290
C64	C	0.700175	-0.076220	-0.368404
C65	C	0.700195	0.075900	-0.368401
C66	C	0.726645	-0.000165	-0.429621
C67	C	0.674885	-0.000119	-0.213403
C68	C	0.670645	-0.000099	-0.568282
C69	C	0.668612	-0.000098	0.262759
C70	C	0.669739	-0.000092	0.355995
H71	H	0.693091	-0.558207	0.249095
H72	H	0.747502	-0.557901	-0.001548
C73	C	0.562534	-0.567722	0.075222
H74	H	0.567058	-0.603959	0.025114
H75	H	0.537827	-0.516952	0.068171
H76	H	0.546459	-0.604909	0.121221
H77	H	0.392128	0.152441	0.113043
C78	C	0.110383	-0.260733	0.108302
H79	H	0.070744	-0.248711	0.107664
H80	H	0.115832	-0.295101	0.157540
H81	H	0.124402	-0.295442	0.059555
C82	C	0.731476	-0.163172	-0.341667
H83	H	0.731980	-0.162663	-0.282178
H84	H	0.769635	-0.163403	-0.368928
H85	H	0.712111	-0.217099	-0.357386
C86	C	0.649146	-0.432438	-0.053211
H87	H	0.612553	-0.453571	-0.064374
H88	H	0.677508	-0.454494	-0.095928
H89	H	0.649582	-0.366571	-0.052726
C90	C	0.788177	-0.000282	-0.475039
H91	H	0.794099	0.053740	-0.509059
H92	H	0.793810	-0.053828	-0.509726
H93	H	0.814580	-0.000833	-0.434370
H94	H	0.723380	0.140186	-0.348480
C95	C	0.235151	0.260509	0.110191
H96	H	0.274784	0.248477	0.110893
H97	H	0.221069	0.295059	0.158999
H98	H	0.229761	0.295041	0.061016
C99	C	0.508384	-0.176632	0.115142
H100	H	0.482185	-0.226699	0.114672
H101	H	0.527213	-0.180131	0.164542
H102	H	0.535901	-0.180125	0.066558
C103	C	0.110417	0.260510	0.107973
H104	H	0.070783	0.248482	0.107276
H105	H	0.124503	0.295040	0.059150
H106	H	0.115811	0.295058	0.157134
H107	H	0.622137	0.140206	-0.433172
H108	H	-0.154375	-0.152658	0.103355
C109	C	0.586151	-0.432593	0.237698
H110	H	0.594072	-0.453773	0.291521
H111	H	0.549673	-0.454671	0.226983
H112	H	0.586242	-0.366725	0.236899
C113	C	0.383654	-0.176651	0.112926
H114	H	0.409855	-0.226710	0.113409
H115	H	0.364825	-0.180165	0.063527
H116	H	0.356138	-0.180143	0.161511
H117	H	0.622105	-0.140425	-0.433185
H118	H	0.499903	0.152441	0.114955
H119	H	0.226643	-0.236708	0.110134
H120	H	0.767772	-0.442148	0.138525
H121	H	-0.046603	-0.152660	0.105273
C122	C	-0.038119	0.176430	0.105382
H123	H	-0.064321	0.226490	0.104921
H124	H	-0.010600	0.179934	0.056807
H125	H	-0.019294	0.179929	0.154790
H126	H	-0.154362	0.152400	0.103329
H127	H	0.573372	-0.000164	-0.318345
