data_functionalizedCrystal
_audit_creation_method	'MofGen! by Chris Wilmer'
_symmetry_space_group_name_H-M	'P1'
_symmetry_Int_Tables_number	1
_symmetry_cell_setting	triclinic
loop_
_symmetry_equiv_pos_as_xyz
  x,y,z
_cell_length_a	13.339070
_cell_length_b	8.965430
_cell_length_c	13.339070
_cell_angle_alpha	89.995419
_cell_angle_beta	64.370702
_cell_angle_gamma	90.005459
loop_
_atom_site_label
_atom_site_type_symbol
_atom_site_fract_x
_atom_site_fract_y
_atom_site_fract_z
O1	O	1.496805	0.124186	-0.550518
O2	O	1.181995	0.124165	-0.478258
O3	O	1.303270	0.124140	-0.356984
O4	O	1.375530	0.124212	-0.671793
O5	O	1.303259	-0.123939	-0.356991
O6	O	1.181984	-0.123913	-0.478266
O7	O	1.496794	-0.123892	-0.550525
Cu8	Cu	1.339388	-0.146554	-0.514396
Cu9	Cu	1.339401	0.146828	-0.514388
O10	O	1.375519	-0.123867	-0.671800
C11	C	1.140874	0.000123	-0.466056
C12	C	1.018360	0.000113	-0.429672
N13	N	1.339386	-0.352904	-0.514404
C14	C	0.732973	0.000201	-0.712571
C15	C	0.848082	0.000215	-0.746759
C16	C	0.890657	0.000189	-0.667490
C17	C	0.818112	0.000150	-0.554028
C18	C	0.702992	0.000148	-0.519837
C19	C	0.860677	0.000136	-0.474756
C20	C	0.788132	0.000097	-0.361294
C21	C	0.673024	0.000094	-0.327109
C22	C	0.630448	0.000120	-0.406377
C23	C	0.975796	0.000138	-0.508947
C24	C	0.945816	0.000085	-0.316213
C25	C	0.830707	0.000071	-0.282025
C26	C	1.283270	-0.450198	-0.570457
C27	C	1.388484	-0.549599	-0.619619
C28	C	1.234217	-0.549630	-0.465263
C29	C	1.444664	-0.450116	-0.563629
C30	C	1.290320	-0.450138	-0.409212
C31	C	1.395594	-0.549494	-0.458351
C32	C	1.537914	0.000154	-0.562728
C33	C	1.660428	0.000173	-0.599111
C34	C	1.291058	0.000094	-0.315872
C35	C	1.254675	0.000075	-0.193358
N36	N	1.339409	0.353177	-0.514374
C37	C	1.537574	0.000025	0.092030
C38	C	1.571761	0.000034	-0.023079
C39	C	1.492493	0.000045	-0.065654
C40	C	1.379030	0.000045	0.006890
C41	C	1.344839	0.000024	0.122010
C42	C	1.299758	0.000044	-0.035674
C43	C	1.186296	0.000045	0.036871
C44	C	1.152111	0.000025	0.151979
C45	C	1.231380	0.000014	0.194555
C46	C	1.333949	0.000066	-0.150794
C47	C	1.141215	0.000065	-0.120813
C48	C	1.107028	0.000056	-0.005705
C49	C	1.387730	0.000133	0.287088
C50	C	1.424114	0.000015	0.164574
H51	H	0.984385	0.000204	-0.695333
N52	N	0.689478	0.000203	-0.793528
N53	N	0.712349	-0.104353	-0.861871
H54	H	0.681629	-0.104352	-0.919052
H55	H	1.602102	0.000003	0.126707
H56	H	0.907140	0.000259	-0.839139
H57	H	1.248781	-0.406416	-0.320281
H58	H	1.076667	0.000067	-0.155477
N59	N	1.449840	0.000105	-0.224886
N60	N	1.490428	0.104694	-0.292460
H61	H	1.572283	0.104727	-0.344789
H62	H	1.520335	0.000052	-0.159382
N63	N	1.687655	0.000029	-0.097161
N64	N	1.758420	0.000020	-0.059138
H65	H	1.840277	0.000018	-0.111460
H66	H	1.203549	0.000012	0.288284
N67	N	1.122624	-0.604438	-0.413122
N68	N	1.061127	-0.570779	-0.314449
H69	H	0.982313	-0.609481	-0.277632
N70	N	0.512861	0.000095	-0.371440
N71	N	0.454784	-0.104490	-0.313159
H72	H	0.371737	-0.104508	-0.288487
N73	N	0.989273	0.000068	-0.235217
N74	N	0.966390	0.104623	-0.166872
H75	H	0.997086	0.104616	-0.109673
H76	H	1.235891	-0.406599	-0.617936
H77	H	1.059723	0.000014	0.211043
N78	N	0.991137	0.000029	0.068421
N79	N	0.950562	-0.104555	0.136003
H80	H	0.868715	-0.104576	0.188358
N81	N	1.440560	-0.604391	-0.731206
N82	N	1.401081	-0.572576	-0.798135
H83	H	1.437854	-0.611265	-0.876946
H84	H	1.034852	0.000164	-0.601328
H85	H	0.613959	0.000079	-0.234721
H86	H	1.533661	-0.406588	-0.605282
H87	H	0.771625	0.000051	-0.189642
N88	N	1.455233	-0.603835	-0.398893
N89	N	1.555603	-0.571616	-0.431193
H90	H	1.597728	-0.609994	-0.389205
