data_functionalizedCrystal
_audit_creation_method	'MofGen! by Chris Wilmer'
_symmetry_space_group_name_H-M	'P1'
_symmetry_Int_Tables_number	1
_symmetry_cell_setting	triclinic
loop_
_symmetry_equiv_pos_as_xyz
  x,y,z
_cell_length_a	14.519709
_cell_length_b	15.944551
_cell_length_c	12.996460
_cell_angle_alpha	89.992903
_cell_angle_beta	90.000034
_cell_angle_gamma	83.589442
loop_
_atom_site_label
_atom_site_type_symbol
_atom_site_fract_x
_atom_site_fract_y
_atom_site_fract_z
O1	O	1.223676	0.110109	-0.085435
O2	O	1.557009	0.443442	0.247898
O3	O	1.890343	0.776776	0.581232
O4	O	0.955177	0.123076	-0.085467
O5	O	1.288510	0.456409	0.247866
O6	O	1.621843	0.789742	0.581200
O7	O	1.096759	-0.005672	-0.085441
O8	O	1.430092	0.327662	0.247892
O9	O	1.763425	0.660995	0.581226
O10	O	1.082094	0.238857	-0.085461
O11	O	1.415428	0.572190	0.247872
O12	O	1.748761	0.905523	0.581206
O13	O	1.096744	-0.005679	0.085693
O14	O	1.430077	0.327654	0.419026
O15	O	1.763410	0.660988	0.752360
O16	O	0.955162	0.123069	0.085667
O17	O	1.288495	0.456402	0.419000
O18	O	1.621829	0.789735	0.752334
O19	O	1.223661	0.110102	0.085699
O20	O	1.556995	0.443435	0.419032
O21	O	1.890328	0.776769	0.752365
Cu22	Cu	1.089410	0.116585	0.101309
Cu23	Cu	1.422744	0.449918	0.434642
Cu24	Cu	1.756077	0.783251	0.767975
Cu25	Cu	1.089428	0.116593	-0.101077
Cu26	Cu	1.422761	0.449926	0.232256
Cu27	Cu	1.756094	0.783260	0.565590
O28	O	1.082080	0.238849	0.085673
O29	O	1.415413	0.572183	0.419006
O30	O	1.748746	0.905516	0.752339
C31	C	0.920810	0.122468	0.000096
C32	C	1.254144	0.455801	0.333429
C33	C	1.587477	0.789134	0.666763
C34	C	0.818432	0.120657	0.000084
C35	C	1.151766	0.453990	0.333418
C36	C	1.485099	0.787324	0.666751
C37	C	1.096142	-0.036970	0.000126
C38	C	1.429476	0.296363	0.333459
C39	C	1.762809	0.629696	0.666793
C40	C	1.094317	-0.130219	0.000126
C41	C	1.427651	0.203114	0.333460
C42	C	1.760984	0.536448	0.666793
C43	C	0.443548	0.113990	0.000132
C44	C	0.776882	0.447324	0.333465
C45	C	1.110215	0.780657	0.666798
C46	C	0.547853	0.115842	0.000118
C47	C	0.881186	0.449175	0.333451
C48	C	1.214520	0.782508	0.666785
C49	C	0.630987	0.117323	0.000107
C50	C	0.964320	0.450657	0.333440
C51	C	1.297654	0.783990	0.666774
C52	C	0.735298	0.119175	0.000095
C53	C	1.068632	0.452509	0.333429
C54	C	1.401965	0.785842	0.666762
C55	C	1.002196	-0.345209	0.000101
C56	C	1.335529	-0.011876	0.333435
C57	C	1.668862	0.321457	0.666768
C58	C	1.044967	-0.406168	0.084486
C59	C	1.378300	-0.072835	0.417819
C60	C	1.711633	0.260499	0.751153
C61	C	1.091015	-0.300950	0.000118
C62	C	1.424349	0.032384	0.333452
C63	C	1.757682	0.365717	0.666785
C64	C	1.045002	-0.406144	-0.084239
C65	C	1.378335	-0.072811	0.249095
C66	C	1.711669	0.260522	0.582428
C67	C	1.087820	-0.465867	0.000106
C68	C	1.421153	-0.132534	0.333439
C69	C	1.754486	0.200800	0.666772
C70	C	1.133811	-0.360680	0.084572
C71	C	1.467144	-0.027347	0.417906
C72	C	1.800477	0.305987	0.751239
C73	C	1.133834	-0.360650	-0.084228
C74	C	1.467167	-0.027317	0.249105
C75	C	1.800500	0.306017	0.582439
C76	C	1.176669	-0.421591	0.000177
C77	C	1.510003	-0.088258	0.333510
C78	C	1.843336	0.245076	0.666844
C79	C	1.092854	-0.205945	0.000126
C80	C	1.426187	0.127389	0.333460
C81	C	1.759521	0.460722	0.666793
C82	C	1.085988	-0.560871	0.000105
C83	C	1.419321	-0.227537	0.333438
C84	C	1.752655	0.105796	0.666772
C85	C	1.258028	0.110710	0.000133
C86	C	1.591361	0.444043	0.333467
C87	C	1.924694	0.777377	0.666800
C88	C	1.360406	0.112521	0.000139
C89	C	1.693739	0.445854	0.333472
C90	C	2.027072	0.779187	0.666805
C91	C	1.082696	0.270148	0.000103
C92	C	1.416029	0.603481	0.333437
C93	C	1.749362	0.936815	0.666770
C94	C	1.084521	0.363397	0.000096
C95	C	1.417854	0.696730	0.333430
C96	C	1.751187	1.030063	0.666763
N97	N	1.089405	0.116578	0.243656
N98	N	1.422738	0.449911	0.576989
N99	N	1.756071	0.783245	0.910322
N100	N	1.089441	0.116593	-0.243424
N101	N	1.422774	0.449926	0.089909
N102	N	1.756107	0.783260	0.423243
C103	C	1.089426	0.116594	0.663470
C104	C	1.422760	0.449927	0.996803
C105	C	1.756093	0.783261	1.330137
C106	C	1.089418	0.116592	0.546665
C107	C	1.422751	0.449926	0.879998
C108	C	1.756084	0.783259	1.213332
C109	C	1.089416	0.116587	0.453567
C110	C	1.422749	0.449920	0.786900
C111	C	1.756083	0.783253	1.120233
C112	C	1.089406	0.116584	0.336754
C113	C	1.422740	0.449917	0.670087
C114	C	1.756073	0.783250	1.003421
H115	H	0.928471	-0.312009	0.000177
H116	H	1.261805	0.021325	0.333510
H117	H	1.595138	0.354658	0.666844
H118	H	1.007393	-0.426334	0.155817
H119	H	1.340727	-0.093000	0.489151
H120	H	1.674060	0.240333	0.822484
H121	H	1.171340	-0.340638	0.155991
H122	H	1.504674	-0.007305	0.489324
H123	H	1.838007	0.326029	0.822658
H124	H	1.250458	-0.454643	0.000233
H125	H	1.583792	-0.121309	0.333567
H126	H	1.917125	0.212024	0.666900
H127	H	1.171375	-0.340462	-0.155563
H128	H	1.504708	-0.007129	0.177770
H129	H	1.838042	0.326204	0.511103
H130	H	1.007429	-0.426273	-0.155584
H131	H	1.340763	-0.092939	0.177749
H132	H	1.674096	0.240394	0.511083
