data_functionalizedCrystal
_audit_creation_method	'MofGen! by Chris Wilmer'
_symmetry_space_group_name_H-M	'P1'
_symmetry_Int_Tables_number	1
_symmetry_cell_setting	triclinic
loop_
_symmetry_equiv_pos_as_xyz
  x,y,z
_cell_length_a	13.635800
_cell_length_b	11.102244
_cell_length_c	17.078481
_cell_angle_alpha	84.889132
_cell_angle_beta	80.693839
_cell_angle_gamma	108.604870
loop_
_atom_site_label
_atom_site_type_symbol
_atom_site_fract_x
_atom_site_fract_y
_atom_site_fract_z
V1	V	-2.002847	-0.175542	0.247360
O2	O	-1.983374	0.008741	0.242653
O3	O	-1.991595	-0.348363	0.245666
O4	O	-1.968160	-0.172708	0.355243
O5	O	-2.006971	-0.168131	0.132318
V6	V	-2.244343	-0.153515	0.233600
O7	O	-2.134061	-0.223859	0.277543
O8	O	-2.338228	-0.105198	0.203417
O9	O	-2.143992	0.019306	0.235294
O10	O	-2.322515	-0.337798	0.238306
O11	O	-2.298917	-0.160926	0.348642
O12	O	-2.167427	-0.156349	0.125717
C13	C	-1.917585	-0.390498	0.241763
C14	C	-1.948958	-0.531781	0.241097
V15	V	-1.502847	-0.175542	0.247360
O16	O	-1.483374	0.008741	0.242653
O17	O	-1.491595	-0.348363	0.245666
O18	O	-1.468160	-0.172708	0.355243
O19	O	-1.506971	-0.168131	0.132318
V20	V	-1.744343	-0.153515	0.233600
O21	O	-1.634061	-0.223859	0.277543
O22	O	-1.838228	-0.105198	0.203417
O23	O	-1.643992	0.019306	0.235294
O24	O	-1.822515	-0.337798	0.238306
O25	O	-1.798917	-0.160926	0.348642
O26	O	-1.667427	-0.156349	0.125717
C27	C	-1.949153	-0.580103	0.168135
C28	C	-1.978637	-0.712856	0.167519
C29	C	-2.007726	-0.748954	0.312833
C30	C	-1.978250	-0.616204	0.313449
C31	C	-1.919861	-0.495680	0.095783
C32	C	-1.920053	-0.544001	0.022815
C33	C	-1.949538	-0.676754	0.022199
C34	C	-1.978829	-0.761186	0.094551
C35	C	-1.887690	-0.166430	0.381538
C36	C	-1.900057	-0.165256	0.469733
C37	C	-2.049674	0.061434	0.239194
C38	C	-2.007919	0.202716	0.239865
C39	C	-2.079568	-0.162631	0.099417
C40	C	-2.056821	-0.163799	0.011222
C41	C	-1.417585	-0.390498	0.241763
C42	C	-1.448958	-0.531781	0.241097
C43	C	-1.387690	-0.166430	0.381538
C44	C	-1.400057	-0.165256	0.469733
C45	C	-1.997008	-0.171049	0.515209
C46	C	-2.008622	-0.169945	0.598077
C47	C	-1.923285	-0.163058	0.635469
C48	C	-1.826325	-0.157261	0.589986
C49	C	-1.814711	-0.158355	0.507119
C50	C	-1.948246	-0.159096	0.882872
C51	C	-1.959869	-0.158006	0.965746
C52	C	-2.142165	-0.170688	0.973830
C53	C	-2.130544	-0.171790	0.890962
C54	C	-2.033584	-0.165986	0.845486
N55	N	-1.935155	-0.161934	0.720173
N56	N	-2.021713	-0.167101	0.760782
C57	C	-1.549674	0.061434	0.239194
C58	C	-1.507919	0.202716	0.239865
C59	C	-1.579568	-0.162631	0.099417
C60	C	-1.556821	-0.163799	0.011222
C61	C	-1.497013	-0.171036	0.515194
C62	C	-1.508643	-0.169917	0.598061
C63	C	-1.423317	-0.163026	0.635467
C64	C	-1.326352	-0.157241	0.589999
C65	C	-1.314722	-0.158352	0.507133
C66	C	-1.459913	-0.170675	-0.026164
C67	C	-1.438520	-0.171757	-0.109034
C68	C	-1.514040	-0.165971	-0.154516
C69	C	-1.610954	-0.159090	-0.117126
C70	C	-1.632343	-0.158000	-0.034258
C71	C	-1.554854	-0.604624	0.244742
C72	C	-1.584328	-0.737376	0.244123
C73	C	-1.401999	-0.724428	0.236212
C74	C	-1.372527	-0.591680	0.236836
C75	C	-1.631285	-0.544725	0.249003
C76	C	-1.737189	-0.617569	0.252647
C77	C	-1.766663	-0.750321	0.252029
C78	C	-1.690233	-0.810229	0.247766
H79	H	-1.896210	-0.475249	-0.036090
H80	H	-1.359602	-0.177359	-0.139465
O81	O	-1.258312	-0.513094	0.232906
H82	H	-1.209373	-0.521945	0.176561
H83	H	-1.756842	-0.151645	0.620437
H84	H	-1.799413	-0.568785	0.256125
O85	O	-1.210138	-0.152125	0.458113
H86	H	-1.179779	-0.065307	0.411696
H87	H	-2.221106	-0.175411	1.010865
O88	O	-1.490971	-0.167152	-0.243896
H89	H	-1.476073	-0.257194	-0.255526
O90	O	-1.378481	-0.177008	0.022894
H91	H	-1.307514	-0.181993	-0.017034
O92	O	-2.089053	-0.178481	0.474882
H93	H	-2.067434	-0.092273	0.428848
H94	H	-2.002843	-0.869282	0.094043
O95	O	-1.234330	-0.149828	0.630350
H96	H	-1.258724	-0.150047	0.695610
O97	O	-2.113183	-0.176166	0.647126
H98	H	-2.170573	-0.181144	0.607204
H99	H	-1.949702	-0.716093	-0.037214
H100	H	-2.031575	-0.817708	0.371738
H101	H	-1.587605	-0.174633	0.635070
O102	O	-1.888036	-0.352497	0.096450
H103	H	-1.867697	-0.301907	0.033884
O104	O	-1.843678	-0.152854	0.833829
H105	H	-1.786298	-0.147899	0.873756
O106	O	-1.978027	-0.564068	0.392141
H107	H	-2.003330	-0.645071	0.442347
O108	O	-1.692408	-0.152861	-0.166184
H109	H	-1.661248	-0.154792	-0.230085
H110	H	-1.735756	-0.153607	0.470090
O111	O	-2.222577	-0.179186	0.850628
H112	H	-2.291942	-0.183009	0.896171
H113	H	-1.852894	-0.809630	0.255004
O114	O	-1.867791	-0.150435	1.006067
H115	H	-1.798402	-0.146522	0.960518
H116	H	-1.566502	-0.176651	0.484750
O117	O	-1.736871	-0.150584	0.006059
H118	H	-1.802053	-0.234777	-0.003319
H119	H	-1.714242	-0.918327	0.247270
H120	H	-1.432802	-0.162124	0.702943
O121	O	-1.599494	-0.401547	0.249683
H122	H	-1.670431	-0.372132	0.253267
O123	O	-1.319565	-0.789033	0.231611
H124	H	-1.357849	-0.893578	0.231783
