data_functionalizedCrystal
_audit_creation_method	'MofGen! by Chris Wilmer'
_symmetry_space_group_name_H-M	'P1'
_symmetry_Int_Tables_number	1
_symmetry_cell_setting	triclinic
loop_
_symmetry_equiv_pos_as_xyz
  x,y,z
_cell_length_a	18.215407
_cell_length_b	15.297510
_cell_length_c	18.215399
_cell_angle_alpha	80.352494
_cell_angle_beta	89.986109
_cell_angle_gamma	80.294249
loop_
_atom_site_label
_atom_site_type_symbol
_atom_site_fract_x
_atom_site_fract_y
_atom_site_fract_z
Zn1	Zn	1.074319	0.359211	-0.466757
Zn2	Zn	1.407652	0.692544	-0.133423
Zn3	Zn	1.740985	1.025877	0.199910
Zn4	Zn	1.052925	0.510087	-0.364985
Zn5	Zn	1.386259	0.843420	-0.031652
Zn6	Zn	1.719592	1.176753	0.301682
Zn7	Zn	0.951254	0.359239	-0.343714
Zn8	Zn	1.284587	0.692572	-0.010381
Zn9	Zn	1.617920	1.025905	0.322952
Zn10	Zn	0.929918	0.510022	-0.488007
Zn11	Zn	1.263251	0.843356	-0.154674
Zn12	Zn	1.596585	1.176689	0.178660
O13	O	1.002104	0.434640	-0.415866
O14	O	1.335437	0.767973	-0.082533
O15	O	1.668771	1.101306	0.250801
O16	O	1.174463	0.379240	-0.453265
O17	O	1.507796	0.712573	-0.119932
O18	O	1.841130	1.045907	0.213402
O19	O	1.039414	0.490115	-0.259185
O20	O	1.372748	0.823448	0.074149
O21	O	1.706081	1.156782	0.407482
O22	O	0.985461	0.232989	-0.342241
O23	O	1.318794	0.566323	-0.008908
O24	O	1.652128	0.899656	0.324426
O25	O	1.158745	0.490088	-0.378494
O26	O	1.492079	0.823421	-0.045160
O27	O	1.825412	1.156755	0.288173
O28	O	1.075876	0.232969	-0.432640
O29	O	1.409210	0.566302	-0.099307
O30	O	1.742543	0.899635	0.234027
O31	O	0.964717	0.379288	-0.243557
O32	O	1.298050	0.712621	0.089776
O33	O	1.631383	1.045954	0.423109
O34	O	0.845441	0.379225	-0.362847
O35	O	1.178775	0.712558	-0.029513
O36	O	1.512108	1.045892	0.303820
O37	O	0.949097	0.489978	-0.588167
O38	O	1.282431	0.823311	-0.254834
O39	O	1.615764	1.156645	0.078500
O40	O	0.829766	0.490005	-0.468858
O41	O	1.163100	0.823339	-0.135525
O42	O	1.496433	1.156672	0.197809
O43	O	1.055188	0.379177	-0.572555
O44	O	1.388521	0.712511	-0.239221
O45	O	1.721854	1.045844	0.094112
O46	O	1.018726	0.636324	-0.399099
O47	O	1.352059	0.969657	-0.065766
O48	O	1.685393	1.302990	0.267567
O49	O	0.928353	0.636276	-0.489483
O50	O	1.261686	0.969610	-0.156150
O51	O	1.595020	1.302943	0.177184
C52	C	0.810902	0.434612	-0.415851
C53	C	1.144235	0.767945	-0.082517
C54	C	1.477568	1.101279	0.250816
C55	C	0.729101	0.434622	-0.415865
C56	C	1.062435	0.767955	-0.082531
C57	C	1.395768	1.101288	0.250802
C58	C	0.968923	0.669034	-0.448921
C59	C	1.302256	1.002368	-0.115588
C60	C	1.635589	1.335701	0.217745
C61	C	0.954795	0.769309	-0.463087
C62	C	1.288128	1.102643	-0.129754
C63	C	1.621462	1.435976	0.203579
C64	C	0.455885	0.492417	-0.471015
C65	C	0.789218	0.825751	-0.137681
C66	C	1.122552	1.159084	0.195652
C67	C	0.532745	0.492410	-0.471010
C68	C	0.866078	0.825743	-0.137677
C69	C	1.199412	1.159076	0.195657
C70	C	0.549061	0.376882	-0.360733
C71	C	0.882395	0.710215	-0.027399
C72	C	1.215728	1.043548	0.305934
C73	C	0.472202	0.376895	-0.360735
C74	C	0.805536	0.710228	-0.027402
C75	C	1.138869	1.043561	0.305932
C76	C	0.425616	0.434661	-0.415880
C77	C	0.758950	0.767995	-0.082547
C78	C	1.092283	1.101328	0.250787
C79	C	0.579335	0.434641	-0.415873
C80	C	0.912669	0.767974	-0.082540
C81	C	1.246002	1.101307	0.250794
C82	C	0.662670	0.434632	-0.415868
C83	C	0.996003	0.767965	-0.082534
C84	C	1.329337	1.101298	0.250799
C85	C	0.342276	0.434671	-0.415885
C86	C	0.675609	0.768005	-0.082551
C87	C	1.008942	1.101338	0.250782
C88	C	1.103344	1.051941	-0.314914
C89	C	1.436677	1.385274	0.018420
C90	C	1.770010	1.718608	0.351753
C91	C	1.116617	0.957728	-0.301600
C92	C	1.449950	1.291061	0.031733
C93	C	1.783284	1.624394	0.365066
C94	C	1.076163	0.910618	-0.341971
C95	C	1.409496	1.243952	-0.008638
C96	C	1.742830	1.577285	0.324696
C97	C	1.022433	0.957732	-0.395657
C98	C	1.355766	1.291065	-0.062324
C99	C	1.689099	1.624399	0.271010
C100	C	1.009154	1.051954	-0.408968
C101	C	1.342487	1.385288	-0.075634
C102	C	1.675821	1.718621	0.257699
C103	C	0.981973	0.910632	-0.436025
C104	C	1.315306	1.243965	-0.102692
C105	C	1.648640	1.577298	0.230642
C106	C	0.928243	0.957745	-0.489711
C107	C	1.261576	1.291079	-0.156378
C108	C	1.594909	1.624412	0.176956
C109	C	0.914967	1.051959	-0.503019
C110	C	1.248300	1.385292	-0.169686
C111	C	1.581634	1.718625	0.163647
C112	C	0.955421	1.099068	-0.462649
C113	C	1.288754	1.432401	-0.129315
C114	C	1.622088	1.765734	0.204018
C115	C	0.995252	0.816409	-0.422714
C116	C	1.328585	1.149743	-0.089381
C117	C	1.661919	1.483076	0.243952
C118	C	0.901062	0.816423	-0.516768
C119	C	1.234395	1.149756	-0.183435
C120	C	1.567729	1.483089	0.149898
C121	C	0.887789	0.910636	-0.530082
C122	C	1.221122	1.243969	-0.196748
C123	C	1.554455	1.577303	0.136585
C124	C	1.194053	0.434668	-0.415882
C125	C	1.527386	0.768001	-0.082548
C126	C	1.860720	1.101335	0.250785
C127	C	1.275850	0.434680	-0.415888
C128	C	1.609183	0.768013	-0.082555
C129	C	1.942517	1.101347	0.250778
C130	C	1.035428	1.199330	-0.382705
C131	C	1.368761	1.532663	-0.049372
C132	C	1.702095	1.865996	0.283961
C133	C	1.049611	1.099054	-0.368595
C134	C	1.382944	1.432388	-0.035261
C135	C	1.716278	1.765721	0.298072
C136	C	1.002149	0.434567	-0.607809
C137	C	1.335482	0.767901	-0.274475
C138	C	1.668816	1.101234	0.058858
C139	C	1.002168	0.434537	-0.689603
C140	C	1.335501	0.767870	-0.356270
C141	C	1.668835	1.101203	-0.022937
C142	C	0.963318	0.376790	-0.869656
C143	C	1.296652	0.710123	-0.536322
C144	C	1.629985	1.043457	-0.202989
C145	C	0.963334	0.376772	-0.946512
C146	C	1.296667	0.710105	-0.613178
C147	C	1.630000	1.043438	-0.279845
C148	C	1.041121	0.492176	-0.962774
C149	C	1.374454	0.825509	-0.629440
C150	C	1.707788	1.158843	-0.296107
C151	C	1.041101	0.492198	-0.885920
C152	C	1.374434	0.825531	-0.552586
C153	C	1.707768	1.158865	-0.219253
C154	C	1.002201	0.434500	-0.839362
C155	C	1.335535	0.767833	-0.506028
C156	C	1.668868	1.101167	-0.172695
C157	C	1.002237	0.434460	-0.993072
C158	C	1.335570	0.767793	-0.659739
C159	C	1.668904	1.101126	-0.326405
C160	C	1.002254	0.434440	-1.076403
C161	C	1.335587	0.767774	-0.743070
C162	C	1.668920	1.101107	-0.409736
C163	C	1.002183	0.434520	-0.756026
C164	C	1.335516	0.767853	-0.422692
C165	C	1.668850	1.101187	-0.089359
C166	C	1.002111	0.434646	-0.224661
C167	C	1.335444	0.767980	0.108673
C168	C	1.668777	1.101313	0.442006
C169	C	1.002270	0.434423	-0.142831
C170	C	1.335603	0.767756	0.190503
C171	C	1.668937	1.101089	0.523836
H172	H	0.417956	0.539455	-0.515917
H173	H	0.751290	0.872788	-0.182584
H174	H	1.084623	1.206122	0.150750
H175	H	0.931644	0.329809	-0.831750
H176	H	1.264977	0.663142	-0.498417
H177	H	1.598310	0.996475	-0.165083
H178	H	0.931670	0.329779	-0.971173
H179	H	1.265004	0.663113	-0.637840
H180	H	1.598337	0.996446	-0.304506
H181	H	1.072765	0.539196	-0.861255
H182	H	1.406099	0.872529	-0.527922
H183	H	1.739432	1.205862	-0.194588
F184	F	0.564955	0.553884	-0.529691
F185	F	0.898288	0.887217	-0.196357
F186	F	1.231622	1.220551	0.136976
F187	F	0.598648	0.315403	-0.302049
F188	F	0.931981	0.648736	0.031284
F189	F	1.265315	0.982069	0.364617
H190	H	0.447558	0.329861	-0.315834
H191	H	0.780891	0.663195	0.017499
H192	H	1.114224	0.996528	0.350833
F193	F	1.052434	0.766278	-0.365579
F194	F	1.385767	1.099612	-0.032246
F195	F	1.719100	1.432945	0.301087
H196	H	1.160363	0.919371	-0.257889
H197	H	1.493696	1.252705	0.075444
H198	H	1.827030	1.586038	0.408778
F199	F	0.941063	1.199341	-0.476581
F200	F	1.274396	1.532675	-0.143248
F201	F	1.607730	1.866008	0.190086
H202	H	1.086973	0.833906	-0.331127
H203	H	1.420306	1.167239	0.002206
H204	H	1.753639	1.500572	0.335539
F205	F	0.857779	1.102098	-0.560154
F206	F	1.191112	1.435431	-0.226821
F207	F	1.524445	1.768764	0.106513
F208	F	1.082520	0.553577	-1.012330
F209	F	1.415853	0.886911	-0.678996
F210	F	1.749186	1.220244	-0.345663
F211	F	0.830606	0.960788	-0.587217
F212	F	1.163940	1.294122	-0.253884
F213	F	1.497273	1.627455	0.079450
H214	H	1.136271	1.090306	-0.282045
H215	H	1.469605	1.423639	0.051288
H216	H	1.802938	1.756973	0.384622
H217	H	0.868119	0.778067	-0.549640
H218	H	1.201453	1.111400	-0.216307
H219	H	1.534786	1.444734	0.117026
