data_functionalizedCrystal
_audit_creation_method	'MofGen! by Chris Wilmer'
_symmetry_space_group_name_H-M	'P1'
_symmetry_Int_Tables_number	1
_symmetry_cell_setting	triclinic
loop_
_symmetry_equiv_pos_as_xyz
  x,y,z
_cell_length_a	19.077105
_cell_length_b	18.101395
_cell_length_c	19.076919
_cell_angle_alpha	92.272317
_cell_angle_beta	90.076224
_cell_angle_gamma	87.727498
loop_
_atom_site_label
_atom_site_type_symbol
_atom_site_fract_x
_atom_site_fract_y
_atom_site_fract_z
Zn1	Zn	1.058231	-0.358271	-0.440421
Zn2	Zn	1.062857	-0.477344	-0.322915
Zn3	Zn	0.945450	-0.348351	-0.318214
Zn4	Zn	0.940679	-0.476897	-0.435668
O5	O	1.001804	-0.415216	-0.379305
O6	O	1.157176	-0.378405	-0.428790
O7	O	1.051216	-0.456268	-0.223960
O8	O	0.960470	-0.246037	-0.334447
O9	O	1.160575	-0.465887	-0.342459
O10	O	1.043330	-0.253326	-0.424232
O11	O	0.964957	-0.361497	-0.220507
O12	O	0.846486	-0.361064	-0.329838
O13	O	0.952340	-0.465126	-0.534630
O14	O	0.842981	-0.455506	-0.416131
O15	O	1.038704	-0.377972	-0.538122
O16	O	1.046590	-0.580914	-0.337850
O17	O	0.956826	-0.580586	-0.420689
C18	C	0.819237	-0.407161	-0.371959
C19	C	0.741133	-0.403733	-0.368833
C20	C	1.001711	-0.607621	-0.379280
C21	C	1.001735	-0.689937	-0.379296
C22	C	0.702636	-0.451363	-0.412222
C23	C	0.629249	-0.448133	-0.409288
C24	C	0.594361	-0.397276	-0.362962
C25	C	0.632863	-0.349642	-0.319571
C26	C	0.706248	-0.352869	-0.322509
C27	C	0.375075	-0.382341	-0.349369
C28	C	0.301684	-0.379119	-0.346433
C29	C	0.298076	-0.477610	-0.436152
C30	C	0.371463	-0.480836	-0.439082
C31	C	0.409959	-0.433198	-0.395694
N32	N	0.519348	-0.393975	-0.359960
N33	N	0.484970	-0.436497	-0.398700
C34	C	1.001887	-0.989036	-0.379340
C35	C	0.945531	-0.957547	-0.431600
C36	C	0.945280	-0.871910	-0.431419
C37	C	1.001811	-0.840650	-0.379319
C38	C	0.984741	-0.867911	-0.304458
C39	C	0.984379	-0.953554	-0.304770
C40	C	1.075459	-0.961424	-0.401293
C41	C	1.074956	-0.875820	-0.402900
C42	C	1.001770	-0.756788	-0.379302
C43	C	1.001927	-1.072898	-0.379351
C44	C	1.185084	-0.423303	-0.386679
C45	C	1.263188	-0.426749	-0.389822
C46	C	0.994474	-0.422606	-0.562585
C47	C	0.991350	-0.425755	-0.640688
C48	C	1.001916	-0.222060	-0.379345
C49	C	1.001964	-0.139749	-0.379363
C50	C	1.034846	-0.381860	-0.679200
C51	C	1.031902	-0.384816	-0.752586
C52	C	0.985466	-0.431671	-0.787458
C53	C	0.941966	-0.475568	-0.748941
C54	C	0.944906	-0.472608	-0.675556
C55	C	0.971847	-0.445387	-1.006740
C56	C	0.968911	-0.448346	-1.080130
C57	C	1.058847	-0.357593	-1.083770
C58	C	1.061786	-0.354640	-1.010384
C59	C	1.018283	-0.398533	-0.971872
N60	N	0.982458	-0.434696	-0.862471
N61	N	1.021289	-0.395505	-0.896861
C62	C	1.009146	-0.407803	-0.196739
C63	C	1.012406	-0.404451	-0.118642
H64	H	0.731037	-0.492778	-0.449944
H65	H	0.399864	-0.522250	-0.476804
H66	H	1.118927	-0.854786	-0.367848
H67	H	1.024629	-0.847532	-0.264328
H68	H	1.091602	-0.985932	-0.455108
Br69	Br	0.885870	-0.532177	-0.623288
Br70	Br	1.096505	-0.846682	-0.494751
Br71	Br	0.896229	-0.827220	-0.273595
Br72	Br	0.905884	-0.511936	-1.127456
Br73	Br	1.050087	-0.988020	-0.237387
Br74	Br	1.145383	-0.995469	-0.337926
H75	H	0.604451	-0.308230	-0.281854
H76	H	0.737591	-0.314080	-0.287181
H77	H	1.099601	-0.316487	-0.981996
Br78	Br	0.577006	-0.512774	-0.468178
Br79	Br	0.878940	-0.539153	-0.796267
Br80	Br	1.097875	-0.318274	-0.631881
H81	H	0.266725	-0.516393	-0.471476
Br82	Br	0.962504	-0.841435	-0.523782
H83	H	0.936434	-0.481139	-0.975393
H84	H	1.094263	-0.321856	-1.115133
Br85	Br	0.427310	-0.317687	-0.290489
Br86	Br	0.962531	-0.996435	-0.524254
Br87	Br	0.254336	-0.310103	-0.283550
Br88	Br	1.090967	-0.325278	-0.804852
H89	H	0.890687	-0.848550	-0.416642
H90	H	0.891266	-0.976217	-0.416994
H91	H	0.930687	-0.970551	-0.286519
