data_functionalizedCrystal
_audit_creation_method	'MofGen! by Chris Wilmer'
_symmetry_space_group_name_H-M	'P1'
_symmetry_Int_Tables_number	1
_symmetry_cell_setting	triclinic
loop_
_symmetry_equiv_pos_as_xyz
  x,y,z
_cell_length_a	23.532357
_cell_length_b	23.532355
_cell_length_c	22.010155
_cell_angle_alpha	89.997414
_cell_angle_beta	89.998697
_cell_angle_gamma	82.827896
loop_
_atom_site_label
_atom_site_type_symbol
_atom_site_fract_x
_atom_site_fract_y
_atom_site_fract_z
O1	O	0.068988	0.755271	-0.050450
O2	O	0.079022	0.589401	-0.050470
O3	O	-0.008930	0.677352	-0.050447
O4	O	0.156940	0.667319	-0.050473
O5	O	-0.008916	0.677336	0.050604
O6	O	0.079035	0.589385	0.050580
O7	O	0.069001	0.755255	0.050601
Cu8	Cu	0.074019	0.672318	0.059817
Cu9	Cu	0.074004	0.672337	-0.059687
O10	O	0.156953	0.667303	0.050577
C11	C	0.078778	0.568177	0.000053
C12	C	0.078024	0.504958	0.000045
C13	C	0.073293	0.112936	0.055154
C14	C	0.072575	0.053537	0.055157
O15	O	0.072191	0.022811	0.102002
N16	N	0.072212	0.023837	0.000074
C17	C	0.072561	0.053541	-0.055014
O18	O	0.072186	0.022825	-0.101866
C19	C	0.073275	0.112940	-0.055016
C20	C	0.073643	0.142636	0.000070
C21	C	0.073661	0.142632	0.110236
C22	C	0.074379	0.202027	0.110233
C23	C	0.074730	0.231727	0.055149
C24	C	0.074362	0.202031	0.000067
C25	C	0.073619	0.142643	-0.110104
C26	C	0.074332	0.202045	-0.110101
C27	C	0.074701	0.231741	-0.055015
C28	C	0.075431	0.291125	-0.055019
N29	N	0.075794	0.320824	0.000063
C30	C	0.075443	0.291125	0.055147
C31	C	0.071062	-0.071200	-0.055006
C32	C	0.070353	-0.130599	-0.055005
C33	C	0.070366	-0.130598	0.055166
C34	C	0.071079	-0.071199	0.055164
C35	C	0.071425	-0.041501	0.000076
C36	C	0.076953	0.415859	0.055137
C37	C	0.077674	0.475259	0.055130
C38	C	0.077657	0.475254	-0.055041
C39	C	0.076939	0.415859	-0.055034
C40	C	0.076585	0.386163	0.000060
O41	O	0.075813	0.321889	-0.101841
O42	O	0.075811	0.321850	0.101991
C43	C	-0.030140	0.677094	0.000080
C44	C	-0.093358	0.676339	0.000086
C45	C	-0.485376	0.671611	-0.055030
C46	C	-0.544775	0.670894	-0.055034
O47	O	-0.575497	0.670511	-0.101879
N48	N	-0.574479	0.670529	0.000048
C49	C	-0.544780	0.670876	0.055137
O50	O	-0.575499	0.670500	0.101988
C51	C	-0.485381	0.671589	0.055140
C52	C	-0.455681	0.671960	0.000055
C53	C	-0.455675	0.671980	-0.110111
C54	C	-0.396280	0.672699	-0.110107
C55	C	-0.366585	0.673047	-0.055023
C56	C	-0.396286	0.672678	0.000058
C57	C	-0.455682	0.671932	0.110228
C58	C	-0.396279	0.672645	0.110226
C59	C	-0.366579	0.673015	0.055141
C60	C	-0.307196	0.673745	0.055147
N61	N	-0.277492	0.674109	0.000065
C62	C	-0.307187	0.673761	-0.055020
C63	C	-0.669521	0.669378	0.055127
C64	C	-0.728919	0.668669	0.055124
C65	C	-0.728910	0.668685	-0.055046
C66	C	-0.669511	0.669398	-0.055044
C67	C	-0.639817	0.669742	0.000045
C68	C	-0.182453	0.675269	-0.055008
C69	C	-0.123053	0.675990	-0.054999
C70	C	-0.123067	0.675971	0.055172
C71	C	-0.182462	0.675253	0.055163
C72	C	-0.212153	0.674901	0.000069
O73	O	-0.276435	0.674126	0.101968
O74	O	-0.276459	0.674129	-0.101863
C75	C	0.178163	0.667562	0.000049
C76	C	0.241381	0.668317	0.000039
C77	C	0.069245	0.776479	0.000077
C78	C	0.069999	0.839698	0.000080
N79	N	0.074030	0.672309	0.143870
N80	N	0.073989	0.672351	-0.143739
C81	C	0.035064	0.711284	0.563659
C82	C	0.035060	0.711287	0.627267
O83	O	0.001938	0.744402	0.660167
N84	N	0.073992	0.672337	0.659077
C85	C	0.112926	0.633378	0.627276
O86	O	0.146040	0.600248	0.660173
C87	C	0.112927	0.633373	0.563669
C88	C	0.073997	0.672329	0.531863
C89	C	-0.003863	0.750237	0.531853
C90	C	-0.003858	0.750235	0.468249
C91	C	0.035074	0.711280	0.436453
C92	C	0.074001	0.672327	0.468259
C93	C	0.151858	0.594412	0.531869
C94	C	0.151855	0.594410	0.468258
C95	C	0.112925	0.633366	0.436452
C96	C	0.112938	0.633370	0.372860
N97	N	0.074007	0.672320	0.341050
C98	C	0.035075	0.711275	0.372846
C99	C	0.112921	0.633391	0.760853
C100	C	0.112923	0.633398	0.824459
C101	C	0.035057	0.711306	0.824446
C102	C	0.035057	0.711301	0.760839
C103	C	0.073989	0.672341	0.729044
C104	C	0.035088	0.711268	0.239275
C105	C	0.035098	0.711264	0.175666
C106	C	0.112962	0.633354	0.175685
C107	C	0.112955	0.633360	0.239288
C108	C	0.074013	0.672319	0.271082
O109	O	0.146043	0.600271	0.339919
O110	O	0.001962	0.744395	0.339941
H111	H	0.074614	0.226223	-0.154961
O112	O	-0.094261	0.676222	0.108714
C113	C	-0.069295	0.627028	0.202831
C114	C	-0.101960	0.626691	0.142225
H115	H	-0.075498	0.586981	0.229936
H116	H	-0.086417	0.666712	0.230060
H117	H	-0.021748	0.627626	0.193343
H118	H	-0.149512	0.626073	0.151657
H119	H	-0.084791	0.587011	0.115014
O120	O	-0.002777	0.749129	0.144864
C121	C	-0.079988	0.826426	0.151576
C122	C	-0.037135	0.783570	0.186531
H123	H	-0.107769	0.854290	0.185249
H124	H	-0.108350	0.802036	0.121814
H125	H	-0.055536	0.854706	0.121780
H126	H	-0.061540	0.755278	0.216361
H127	H	-0.008774	0.807995	0.216255
O128	O	-0.002793	0.749035	0.270182
C129	C	-0.080628	0.761633	0.342011
C130	C	-0.037772	0.718797	0.307036
H131	H	-0.108911	0.737203	0.371826
H132	H	-0.108488	0.789464	0.308373
H133	H	-0.056178	0.789951	0.371761
H134	H	-0.062176	0.690442	0.277286
H135	H	-0.009913	0.691007	0.340707
H136	H	-0.035560	0.781955	0.442356
O137	O	0.071509	-0.042394	-0.108538
C138	C	0.121052	-0.031000	-0.202723
C139	C	0.120625	-0.063655	-0.142116
H140	H	0.160752	-0.048186	-0.229894
H141	H	0.121663	0.016558	-0.193308
H142	H	0.081029	-0.037224	-0.229857
H143	H	0.160641	-0.057478	-0.114953
H144	H	0.119985	-0.111201	-0.151575
O145	O	-0.640628	0.669797	0.108605
C146	C	-0.580353	0.719961	0.172581
C147	C	-0.613032	0.719553	0.111989
H148	H	-0.558043	0.760190	0.175342
H149	H	-0.547061	0.680460	0.175348
H150	H	-0.611799	0.719551	0.211933
H151	H	-0.581630	0.719983	0.072603
H152	H	-0.646332	0.759050	0.109276
H153	H	0.077945	0.499445	-0.099889
H154	H	0.003355	0.743025	0.850346
O155	O	0.189727	0.556644	0.562785
C156	C	0.267553	0.544041	0.634621
C157	C	0.224706	0.586879	0.599637
H158	H	0.295837	0.568469	0.664435
H159	H	0.295414	0.516206	0.600988
H160	H	0.243097	0.515728	0.664373
H161	H	0.249117	0.615230	0.569885
H162	H	0.196846	0.614674	0.633303
H163	H	0.074676	0.226201	0.155090
H164	H	0.003357	0.743023	0.734946
H165	H	0.073374	0.118458	0.155094
H166	H	-0.035569	0.781959	0.557736
O167	O	0.189755	0.556620	0.437401
C168	C	0.288964	0.522637	0.417981
C169	C	0.246106	0.565472	0.452953
H170	H	0.334533	0.529771	0.430552
H171	H	0.282334	0.529322	0.367048
H172	H	0.281749	0.477073	0.430486
H173	H	0.253295	0.611052	0.440500
H174	H	0.252747	0.558737	0.503877
H175	H	-0.753098	0.668399	-0.099900
H176	H	-0.206645	0.674957	0.100018
O177	O	0.150766	0.595504	0.855258
C178	C	0.228020	0.518252	0.848540
C179	C	0.185188	0.561131	0.813588
H180	H	0.255870	0.490458	0.814865
H181	H	0.203610	0.489905	0.878302
H182	H	0.256318	0.542682	0.878335
H183	H	0.156879	0.536748	0.783760
H184	H	0.209633	0.589477	0.783864
O185	O	0.076510	0.386958	-0.108505
C186	C	0.026321	0.326685	-0.172457
C187	C	0.026749	0.359370	-0.111871
H188	H	-0.013913	0.304381	-0.175204
H189	H	0.065817	0.293388	-0.175229
H190	H	0.026726	0.358126	-0.211814
H191	H	0.026324	0.327972	-0.072479
H192	H	-0.012744	0.392674	-0.109152
H193	H	-0.479846	0.671694	-0.154970
O194	O	-0.094287	0.676322	-0.108566
C195	C	-0.100563	0.676296	-0.217840
C196	C	-0.133206	0.675908	-0.157222
H197	H	-0.132016	0.675974	-0.257194
H198	H	-0.067318	0.636760	-0.220641
H199	H	-0.078188	0.716487	-0.220556
H200	H	-0.155615	0.635744	-0.154465
H201	H	-0.166418	0.715471	-0.154447
O202	O	0.150773	0.595626	0.729903
C203	C	0.228656	0.583041	0.658133
C204	C	0.185812	0.625870	0.693129
H205	H	0.257004	0.607476	0.628402
H206	H	0.204255	0.554735	0.628315
H207	H	0.256453	0.555197	0.691811
H208	H	0.158004	0.653752	0.659495
H209	H	0.210249	0.654136	0.722956
O210	O	-0.211306	0.674826	-0.108507
C211	C	-0.271644	0.624696	-0.172443
C212	C	-0.238980	0.625117	-0.111843
H213	H	-0.294037	0.584517	-0.175154
H214	H	-0.240231	0.625046	-0.211834
H215	H	-0.304880	0.664242	-0.175185
H216	H	-0.205744	0.585578	-0.109041
H217	H	-0.270427	0.624796	-0.072481
H218	H	-0.479854	0.671632	0.155085
O219	O	0.150792	0.595463	0.270095
C220	C	0.228038	0.518202	0.263387
C221	C	0.185216	0.561087	0.228429
H222	H	0.255889	0.490405	0.229716
H223	H	0.203619	0.489858	0.293143
H224	H	0.256335	0.542626	0.293189
H225	H	0.156908	0.536710	0.198594
H226	H	0.209671	0.589430	0.198712
H227	H	0.071380	-0.047025	0.100020
O228	O	-0.367517	0.673025	-0.163672
C229	C	-0.373804	0.672992	-0.272945
C230	C	-0.406441	0.672612	-0.212324
H231	H	-0.405261	0.672670	-0.312296
H232	H	-0.340562	0.633453	-0.275747
H233	H	-0.351425	0.713180	-0.275668
H234	H	-0.428854	0.632451	-0.209560
H235	H	-0.439650	0.712177	-0.209548
O236	O	0.070103	-0.159482	-0.108500
C237	C	0.118614	-0.233305	-0.172436
C238	C	0.118979	-0.200635	-0.111836
H239	H	0.158120	-0.266593	-0.175148
H240	H	0.119025	-0.201900	-0.211827
H241	H	0.078397	-0.255636	-0.175178
H242	H	0.159190	-0.178303	-0.109034
H243	H	0.118538	-0.232067	-0.072474
O244	O	-0.640747	0.669727	-0.108607
C245	C	-0.647029	0.669704	-0.217881
C246	C	-0.679669	0.669319	-0.157261
H247	H	-0.678485	0.669387	-0.257234
H248	H	-0.613789	0.630165	-0.220685
H249	H	-0.624649	0.709891	-0.220598
H250	H	-0.702084	0.629159	-0.154503
H251	H	-0.712877	0.708885	-0.154483
O252	O	-0.757676	0.668291	0.108689
C253	C	-0.751404	0.668385	0.217962
C254	C	-0.718768	0.668804	0.157343
H255	H	-0.719963	0.668812	0.257315
H256	H	-0.773745	0.628177	0.220756
H257	H	-0.784677	0.707902	0.220690
H258	H	-0.685468	0.629315	0.154574
H259	H	-0.696466	0.709039	0.154575
O260	O	0.070121	-0.159443	0.108691
C261	C	0.119234	-0.184355	0.202864
C262	C	0.119591	-0.151671	0.142268
H263	H	0.159220	-0.178073	0.230033
H264	H	0.118695	-0.231920	0.193431
H265	H	0.079495	-0.167235	0.230006
H266	H	0.159323	-0.168743	0.115095
H267	H	0.120100	-0.104110	0.151744
O268	O	0.078003	0.504021	0.108697
C269	C	0.077974	0.497737	0.217971
C270	C	0.077588	0.465098	0.157353
H271	H	0.077651	0.466281	0.257325
H272	H	0.038438	0.530981	0.220774
H273	H	0.118164	0.520112	0.220687
H274	H	0.037424	0.442689	0.154596
H275	H	0.117151	0.431886	0.154576
O276	O	0.076509	0.387007	0.108639
C277	C	0.026383	0.326671	0.172589
C278	C	0.026802	0.359331	0.111985
H279	H	-0.013795	0.304277	0.175308
H280	H	0.026734	0.358086	0.211976
H281	H	0.065930	0.293436	0.175332
H282	H	-0.012738	0.392566	0.109182
H283	H	0.026481	0.327882	0.072627
O284	O	0.073230	0.113898	-0.163669
C285	C	0.073305	0.120191	-0.272942
C286	C	0.073736	0.152814	-0.212319
H287	H	0.073726	0.151639	-0.312291
H288	H	0.033094	0.097852	-0.275728
H289	H	0.112820	0.086916	-0.275684
H290	H	0.034249	0.186116	-0.209536
H291	H	0.113973	0.175113	-0.209559
O292	O	-0.367526	0.672998	0.163796
C293	C	-0.373801	0.672848	0.273069
C294	C	-0.406435	0.672464	0.212447
H295	H	-0.405243	0.672404	0.312420
H296	H	-0.351455	0.713052	0.275884
H297	H	-0.340531	0.633326	0.275779
H298	H	-0.439732	0.711958	0.209697
H299	H	-0.428741	0.632234	0.209658
H300	H	0.144662	0.601639	0.149786
