data_functionalizedCrystal
_audit_creation_method	'MofGen! by Chris Wilmer'
_symmetry_space_group_name_H-M	'P1'
_symmetry_Int_Tables_number	1
_symmetry_cell_setting	triclinic
loop_
_symmetry_equiv_pos_as_xyz
  x,y,z
_cell_length_a	15.944551
_cell_length_b	15.944493
_cell_length_c	14.421503
_cell_angle_alpha	90.010165
_cell_angle_beta	89.996859
_cell_angle_gamma	83.486891
loop_
_atom_site_label
_atom_site_type_symbol
_atom_site_fract_x
_atom_site_fract_y
_atom_site_fract_z
O1	O	1.114507	0.108323	-0.077003
O2	O	1.614507	0.608323	0.422997
O3	O	0.869954	0.121680	-0.077024
O4	O	1.369954	0.621680	0.422976
O5	O	0.998934	-0.007276	-0.077021
O6	O	1.498934	0.492724	0.422979
O7	O	0.985527	0.237280	-0.077006
O8	O	1.485527	0.737280	0.422994
O9	O	0.998913	-0.007257	0.077203
O10	O	1.498913	0.492743	0.577203
O11	O	0.869933	0.121699	0.077199
O12	O	1.369933	0.621699	0.577199
O13	O	1.114485	0.108343	0.077221
O14	O	1.614485	0.608343	0.577221
Cu15	Cu	0.992207	0.115023	0.091292
Cu16	Cu	1.492207	0.615023	0.591292
Cu17	Cu	0.992232	0.115000	-0.091095
Cu18	Cu	1.492232	0.615000	0.408905
O19	O	0.985506	0.237299	0.077217
O20	O	1.485506	0.737299	0.577217
C21	C	0.838650	0.121135	0.000084
C22	C	1.338650	0.621135	0.500084
C23	C	0.745404	0.119473	0.000076
C24	C	1.245404	0.619473	0.500076
C25	C	0.530565	0.035566	0.000089
C26	C	1.030565	0.535566	0.500089
C27	C	0.469547	0.074520	-0.075949
C28	C	0.969547	0.574520	0.424051
C29	C	0.574679	0.116465	0.000086
C30	C	1.074679	0.616465	0.500086
C31	C	0.469548	0.074558	0.076103
C32	C	0.969548	0.574558	0.576103
C33	C	0.409767	0.113555	0.000101
C34	C	0.909767	0.613555	0.500101
C35	C	0.514889	0.155442	-0.076014
C36	C	1.014889	0.655442	0.423986
C37	C	0.514897	0.155468	0.076106
C38	C	1.014897	0.655468	0.576106
C39	C	0.453897	0.194481	0.000050
C40	C	0.953897	0.694481	0.500050
C41	C	0.669681	0.118140	0.000077
C42	C	1.169681	0.618140	0.500077
C43	C	0.314766	0.111886	0.000103
C44	C	0.814766	0.611886	0.500103
C45	C	0.998375	-0.038562	0.000087
C46	C	1.498375	0.461438	0.500087
C47	C	0.996733	-0.131810	0.000075
C48	C	1.496733	0.368190	0.500075
C49	C	1.072653	-0.367570	0.000099
C50	C	1.572653	0.132430	0.500099
C51	C	1.031722	-0.418148	-0.075944
C52	C	1.531722	0.081852	0.424056
C53	C	0.993688	-0.302531	0.000086
C54	C	1.493688	0.197469	0.500086
C55	C	1.031683	-0.418105	0.076108
C56	C	1.531683	0.081895	0.576108
C57	C	0.990754	-0.467441	0.000101
C58	C	1.490754	0.032559	0.500101
C59	C	0.952779	-0.351881	-0.076020
C60	C	1.452779	0.148119	0.423980
C61	C	0.952751	-0.351834	0.076101
C62	C	1.452751	0.148166	0.576101
C63	C	0.911763	-0.402379	0.000039
C64	C	1.411763	0.097621	0.500039
C65	C	0.995381	-0.207531	0.000077
C66	C	1.495381	0.292469	0.500077
C67	C	0.989055	-0.562438	0.000104
C68	C	1.489055	-0.062438	0.500104
C69	C	1.145790	0.108888	0.000110
C70	C	1.645790	0.608888	0.500110
C71	C	1.239036	0.110550	0.000113
C72	C	1.739036	0.610550	0.500113
C73	C	0.986064	0.268584	0.000107
C74	C	1.486064	0.768584	0.500107
C75	C	0.987707	0.361833	0.000113
C76	C	1.487707	0.861833	0.500113
N77	N	0.992196	0.115038	0.219573
N78	N	1.492196	0.615038	0.719573
N79	N	0.992251	0.114978	-0.219377
N80	N	1.492251	0.614978	0.280623
C81	C	0.932545	0.174641	0.469225
C82	C	1.432545	0.674641	0.969225
C83	C	1.008441	0.190949	0.531036
C84	C	1.508441	0.690949	1.031036
C85	C	0.992216	0.115018	0.408734
C86	C	1.492216	0.615018	0.908734
C87	C	0.916339	0.098730	0.531018
C88	C	1.416339	0.598730	1.031018
C89	C	0.992229	0.115001	0.591456
C90	C	1.492229	0.615001	1.091456
C91	C	1.068151	0.131364	0.469184
C92	C	1.568151	0.631364	0.969184
C93	C	0.975998	0.039112	0.469161
C94	C	1.475998	0.539112	0.969161
C95	C	1.051950	0.055388	0.530944
C96	C	1.551950	0.555388	1.030944
C97	C	0.992207	0.115030	0.303473
C98	C	1.492207	0.615030	0.803473
C99	C	0.992246	0.114988	0.696715
C100	C	1.492246	0.614988	1.196715
H101	H	0.420724	0.261690	0.000011
H102	H	0.920724	0.761690	0.500011
H103	H	0.843692	-0.417845	-0.000009
H104	H	1.343692	0.082155	0.499991
H105	H	0.919423	-0.322866	0.140387
H106	H	1.419423	0.177134	0.640387
F107	F	0.541192	0.200167	0.160140
F108	F	1.041192	0.700167	0.660140
F109	F	0.443293	0.029827	0.160125
F110	F	0.943293	0.529827	0.660125
F111	F	0.958023	-0.044756	0.433607
F112	F	1.458023	0.455244	0.933607
H113	H	0.563912	-0.031574	-0.000009
H114	H	1.063912	0.468426	0.499991
F115	F	1.161556	-0.347140	0.000010
F116	F	1.661556	0.152860	0.500010
H117	H	0.449453	0.040295	-0.140238
H118	H	0.949453	0.540295	0.359762
H119	H	1.065079	-0.447101	-0.140228
H120	H	1.565079	0.052899	0.359772
F121	F	0.866655	0.240595	0.433800
F122	F	1.366655	0.740595	0.933800
F123	F	0.909230	-0.314225	-0.160142
F124	F	1.409230	0.185775	0.339858
H125	H	0.534879	0.189625	-0.140369
H126	H	1.034879	0.689625	0.359631
H127	H	1.022171	0.255133	0.558213
H128	H	1.522171	0.755133	1.058213
F129	F	1.075279	-0.455908	0.160134
F130	F	1.575279	0.044092	0.660134
H131	H	1.132338	0.145209	0.442138
H132	H	1.632338	0.645209	0.942138
H133	H	0.852166	0.084961	0.558181
H134	H	1.352166	0.584961	1.058181
H135	H	1.102473	0.004956	0.557873
H136	H	1.602473	0.504956	1.057873
