data_functionalizedCrystal
_audit_creation_method	'MofGen! by Chris Wilmer'
_symmetry_space_group_name_H-M	'P1'
_symmetry_Int_Tables_number	1
_symmetry_cell_setting	triclinic
loop_
_symmetry_equiv_pos_as_xyz
  x,y,z
_cell_length_a	17.699083
_cell_length_b	10.489767
_cell_length_c	16.176319
_cell_angle_alpha	89.977587
_cell_angle_beta	89.995231
_cell_angle_gamma	96.083247
loop_
_atom_site_label
_atom_site_type_symbol
_atom_site_fract_x
_atom_site_fract_y
_atom_site_fract_z
O1	O	1.005137	-0.161297	0.068658
O2	O	1.505137	0.338703	0.568658
O3	O	0.784897	-0.182281	0.068688
O4	O	1.284897	0.317719	0.568688
O5	O	0.900017	0.013900	0.068636
O6	O	1.400017	0.513900	0.568636
O7	O	0.890016	-0.357477	0.068710
O8	O	1.390016	0.142523	0.568710
O9	O	0.900015	0.013918	-0.068857
O10	O	1.400015	0.513918	0.431143
O11	O	0.784894	-0.182263	-0.068805
O12	O	1.284894	0.317737	0.431195
O13	O	1.005134	-0.161279	-0.068836
O14	O	1.505134	0.338721	0.431164
Cu15	Cu	0.895014	-0.171769	-0.081374
Cu16	Cu	1.395014	0.328231	0.418626
Cu17	Cu	0.895017	-0.171790	0.081227
Cu18	Cu	1.395017	0.328210	0.581227
O19	O	0.890014	-0.357459	-0.068783
O20	O	1.390014	0.142541	0.431217
C21	C	0.756694	-0.181520	-0.000055
C22	C	1.256694	0.318480	0.499945
C23	C	0.672661	-0.179264	-0.000045
C24	C	1.172661	0.320736	0.499955
C25	C	0.624800	-0.294419	-0.000022
C26	C	1.124800	0.205581	0.499978
C27	C	0.545842	-0.292291	-0.000033
C28	C	1.045842	0.207709	0.499967
C29	C	0.514747	-0.175009	-0.000062
C30	C	1.014747	0.324991	0.499938
C31	C	0.562614	-0.059846	-0.000087
C32	C	1.062614	0.440154	0.499913
C33	C	0.641570	-0.061974	-0.000082
C34	C	1.141570	0.438026	0.499918
C35	C	0.244195	-0.051260	-0.000109
C36	C	0.744195	0.448740	0.499891
C37	C	0.165233	-0.049140	-0.000112
C38	C	0.665233	0.450860	0.499888
C39	C	0.148467	-0.281576	-0.000061
C40	C	0.648467	0.218424	0.499939
C41	C	0.227423	-0.283705	-0.000056
C42	C	0.727423	0.216295	0.499944
C43	C	0.275283	-0.168543	-0.000085
C44	C	0.775283	0.331457	0.499915
C45	C	0.360897	-0.170851	-0.000075
C46	C	0.860897	0.329149	0.499925
C47	C	0.429135	-0.172700	-0.000066
C48	C	0.929135	0.327300	0.499934
C49	C	0.899256	0.061426	-0.000118
C50	C	1.399256	0.561426	0.499882
C51	C	0.896983	0.203011	-0.000141
C52	C	1.396983	0.703011	0.499859
C53	C	0.822380	0.354481	-0.000146
C54	C	1.322380	0.854481	0.499854
C55	C	0.859680	0.277774	0.067651
C56	C	1.359680	0.777774	0.567651
C57	C	0.859695	0.277833	-0.067906
C58	C	1.359695	0.777833	0.432094
C59	C	0.930270	0.378576	0.067690
C60	C	1.430270	0.878576	0.567690
C61	C	0.930275	0.378641	-0.067928
C62	C	1.430275	0.878641	0.432072
C63	C	0.967626	0.301983	-0.000114
C64	C	1.467626	0.801983	0.499886
C65	C	1.033337	-0.162039	-0.000090
C66	C	1.533337	0.337961	0.499910
C67	C	1.117370	-0.164295	-0.000095
C68	C	1.617370	0.335705	0.499905
C69	C	0.890763	0.595012	-0.000068
C70	C	1.390763	1.095012	0.499932
C71	C	0.893000	0.453419	-0.000163
C72	C	1.393000	0.953419	0.499837
N73	N	0.895019	-0.171796	0.195592
N74	N	1.395019	0.328204	0.695592
N75	N	0.895018	-0.171753	-0.195740
N76	N	1.395018	0.328247	0.304260
C77	C	0.946091	-0.085098	0.238833
C78	C	1.446091	0.414902	0.738833
C79	C	0.946094	-0.085095	0.325380
C80	C	1.446094	0.414905	0.825380
C81	C	0.895021	-0.171785	0.368685
C82	C	1.395021	0.328215	0.868685
C83	C	0.843946	-0.258493	0.325438
C84	C	1.343946	0.241507	0.825438
C85	C	0.843948	-0.258501	0.238892
C86	C	1.343948	0.241499	0.738892
C87	C	0.843940	-0.258464	0.674466
C88	C	1.343940	0.241536	1.174466
C89	C	0.843942	-0.258446	0.761018
C90	C	1.343942	0.241554	1.261018
C91	C	0.946087	-0.085058	0.760954
C92	C	1.446087	0.414942	1.260954
C93	C	0.946088	-0.085066	0.674409
C94	C	1.446088	0.414934	1.174409
C95	C	0.895017	-0.171777	0.631169
C96	C	1.395017	0.328223	1.131169
C97	C	0.895015	-0.171781	0.537325
C98	C	1.395015	0.328219	1.037325
C99	C	0.895018	-0.171777	0.462528
C100	C	1.395018	0.328223	0.962528
H101	H	0.283153	0.042513	-0.000134
H102	H	0.783153	0.542513	0.499866
H103	H	0.680538	0.031796	-0.000100
H104	H	1.180538	0.531796	0.499900
Br105	Br	0.774637	-0.376176	0.180208
Br106	Br	1.274637	0.123824	0.680208
Br107	Br	0.979928	0.451613	0.163304
Br108	Br	1.479928	0.951613	0.663304
Br109	Br	1.015400	0.032595	0.615641
Br110	Br	1.515400	0.532595	1.115641
Br111	Br	0.666992	-0.453597	0.000024
Br112	Br	1.166992	0.046403	0.500024
H113	H	0.987681	-0.014500	0.360587
H114	H	1.487681	0.485500	0.860587
H115	H	0.760969	0.378060	-0.000075
H116	H	1.260969	0.878060	0.499925
Br117	Br	0.520415	0.099326	-0.000133
Br118	Br	1.020415	0.599326	0.499867
H119	H	0.802364	-0.329084	0.360702
H120	H	1.302364	0.170916	0.860702
H121	H	0.987675	-0.014457	0.796169
H122	H	1.487675	0.485543	1.296169
H123	H	0.109489	-0.375347	-0.000041
H124	H	0.609489	0.124653	0.499959
H125	H	1.029084	0.278651	-0.000081
H126	H	1.529084	0.778651	0.499919
Br127	Br	0.809985	0.204506	-0.163409
Br128	Br	1.309985	0.704506	0.336591
H129	H	0.987678	-0.014500	0.203580
H130	H	1.487678	0.485500	0.703580
Br131	Br	0.979920	0.452082	-0.163476
Br132	Br	1.479920	0.952082	0.336524
Br133	Br	0.774622	-0.376104	0.819789
Br134	Br	1.274622	0.123896	1.319789
H135	H	0.802355	-0.329065	0.639267
H136	H	1.302355	0.170935	1.139267
H137	H	0.829869	0.233738	0.124975
H138	H	1.329869	0.733738	0.624975
H139	H	0.252735	-0.379208	-0.000029
H140	H	0.752735	0.120792	0.499971
Br141	Br	0.123033	0.110040	-0.000147
Br142	Br	0.623033	0.610040	0.499853
Br143	Br	0.480890	-0.448579	0.000000
Br144	Br	0.980890	0.051421	0.500000
