data_functionalizedCrystal
_audit_creation_method	'MofGen! by Chris Wilmer'
_symmetry_space_group_name_H-M	'P1'
_symmetry_Int_Tables_number	1
_symmetry_cell_setting	triclinic
loop_
_symmetry_equiv_pos_as_xyz
  x,y,z
_cell_length_a	25.639242
_cell_length_b	18.215405
_cell_length_c	18.215399
_cell_angle_alpha	89.969449
_cell_angle_beta	90.028456
_cell_angle_gamma	89.979588
loop_
_atom_site_label
_atom_site_type_symbol
_atom_site_fract_x
_atom_site_fract_y
_atom_site_fract_z
Zn1	Zn	0.799308	0.293080	0.416272
Zn2	Zn	0.799243	0.416151	0.293200
Zn3	Zn	0.711874	0.293093	0.293201
Zn4	Zn	0.711850	0.416099	0.416206
O5	O	0.755569	0.354606	0.354720
O6	O	0.872464	0.309421	0.399973
O7	O	0.787636	0.399854	0.190216
O8	O	0.723510	0.190107	0.309554
O9	O	0.872416	0.399841	0.309553
O10	O	0.787747	0.190097	0.399974
O11	O	0.723447	0.309444	0.190216
O12	O	0.638706	0.309394	0.309491
O13	O	0.723469	0.399753	0.519199
O14	O	0.638688	0.399766	0.399862
O15	O	0.787723	0.309371	0.519247
O16	O	0.787612	0.519128	0.309489
O17	O	0.723406	0.519090	0.399862
C18	C	0.755514	0.545812	0.354684
C19	C	0.755538	0.627611	0.354694
C20	C	0.619726	0.354577	0.354670
C21	C	0.561612	0.354582	0.354666
C22	C	0.755601	0.354555	0.546673
C23	C	0.755614	0.354533	0.628472
C24	C	0.201249	0.401741	0.401732
C25	C	0.146644	0.401746	0.401743
O26	O	0.118407	0.441806	0.441718
N27	N	0.119330	0.354626	0.354768
C28	C	0.146622	0.307493	0.307783
O29	O	0.118375	0.267414	0.267828
C30	C	0.201225	0.307486	0.307775
C31	C	0.228537	0.354614	0.354749
C32	C	0.228561	0.448865	0.448702
C33	C	0.283161	0.448861	0.448689
C34	C	0.310450	0.401734	0.401706
C35	C	0.283138	0.354610	0.354736
C36	C	0.228517	0.260350	0.260795
C37	C	0.283124	0.260346	0.260792
C38	C	0.310436	0.307474	0.307765
C39	C	0.365027	0.307479	0.307740
N40	N	0.392342	0.354599	0.354716
C41	C	0.365053	0.401726	0.401699
C42	C	0.031951	0.307512	0.307803
C43	C	-0.022651	0.307523	0.307806
C44	C	-0.022625	0.401774	0.401767
C45	C	0.031979	0.401767	0.401760
C46	C	0.059266	0.354632	0.354778
C47	C	0.479718	0.401715	0.401668
C48	C	0.534324	0.401709	0.401649
C49	C	0.534293	0.307456	0.307690
C50	C	0.479692	0.307464	0.307706
C51	C	0.452406	0.354596	0.354701
O52	O	0.393299	0.267437	0.267788
O53	O	0.393307	0.441792	0.441654
C54	C	0.891942	0.354635	0.354770
C55	C	0.950056	0.354648	0.354792
C56	C	0.755638	0.162653	0.354771
C57	C	0.755668	0.080854	0.354793
C58	C	0.789049	0.815800	0.307724
C59	C	0.789072	0.892659	0.307741
C60	C	0.722156	0.892659	0.401769
C61	C	0.722135	0.815802	0.401754
C62	C	0.755581	0.777374	0.354727
C63	C	0.755625	0.931090	0.354760
C64	C	0.755650	1.014424	0.354779
C65	C	0.755557	0.694035	0.354708
C66	C	0.755567	0.354603	0.163513
C67	C	0.755655	0.354417	0.081715
C68	C	0.789084	0.307427	0.816692
C69	C	0.789090	0.307406	0.893551
C70	C	0.722182	0.401525	0.893489
C71	C	0.722173	0.401543	0.816632
C72	C	0.755627	0.354495	0.778235
C73	C	0.755642	0.354456	0.931951
C74	C	0.755648	0.354433	1.015285
C75	C	0.755620	0.354516	0.694896
H76	H	0.556558	0.440089	0.439901
H77	H	0.694924	0.923956	0.440055
H78	H	0.694925	0.439870	0.785320
Br79	Br	0.676784	0.465376	0.945604
Br80	Br	0.068979	0.243541	0.244031
Br81	Br	-0.059710	0.243573	0.244042
H82	H	0.694882	0.784514	0.440034
H83	H	0.816323	0.269116	0.785432
H84	H	0.816333	0.269078	0.924859
H85	H	0.457508	0.440093	0.439937
H86	H	0.457454	0.269090	0.269455
Br87	Br	0.320219	0.512821	0.512445
H88	H	0.206348	0.487242	0.486965
Br89	Br	0.069039	0.465728	0.465512
H90	H	0.206289	0.221975	0.222542
H91	H	-0.044853	0.440146	0.440026
Br92	Br	0.571338	0.243500	0.243930
Br93	Br	0.320154	0.196371	0.197029
H94	H	0.816283	0.784514	0.269433
H95	H	0.816326	0.923942	0.269467
