data_functionalizedCrystal
_audit_creation_method	'MofGen! by Chris Wilmer'
_symmetry_space_group_name_H-M	'P1'
_symmetry_Int_Tables_number	1
_symmetry_cell_setting	triclinic
loop_
_symmetry_equiv_pos_as_xyz
  x,y,z
_cell_length_a	16.625548
_cell_length_b	16.120444
_cell_length_c	16.625539
_cell_angle_alpha	87.130642
_cell_angle_beta	90.020568
_cell_angle_gamma	92.927662
loop_
_atom_site_label
_atom_site_type_symbol
_atom_site_fract_x
_atom_site_fract_y
_atom_site_fract_z
Zn1	Zn	1.216382	-0.331884	0.472171
Zn2	Zn	1.209438	-0.471309	0.344170
Zn3	Zn	1.081542	-0.331916	0.337353
Zn4	Zn	1.074670	-0.471261	0.478957
O5	O	1.145508	-0.401592	0.408163
O6	O	1.328293	-0.350386	0.455204
O7	O	1.192443	-0.452851	0.230435
O8	O	1.105211	-0.215245	0.349544
O9	O	1.323192	-0.452821	0.361162
O10	O	1.204278	-0.215222	0.448594
O11	O	1.098478	-0.350440	0.225427
O12	O	0.967799	-0.350393	0.356125
O13	O	1.093498	-0.452739	0.590888
O14	O	0.962749	-0.452770	0.460161
O15	O	1.197613	-0.350339	0.585902
O16	O	1.185779	-0.587969	0.367743
O17	O	1.086765	-0.587934	0.466770
C18	C	0.936018	-0.401580	0.408140
C19	C	0.846396	-0.401595	0.408150
C20	C	0.518220	-0.401601	0.408185
C21	C	0.609529	-0.401597	0.408172
C22	C	0.682305	-0.401599	0.408167
C23	C	0.773620	-0.401594	0.408156
C24	C	1.134795	-0.618202	0.418750
C25	C	1.130285	-0.710868	0.423306
C26	C	1.169099	-0.921808	0.384700
C27	C	1.122066	-0.880525	0.431634
C28	C	1.126641	-0.786119	0.426999
C29	C	1.164526	-1.016223	0.389334
C30	C	1.355816	-0.401605	0.408187
C31	C	1.445437	-0.401610	0.408197
C32	C	1.145564	-0.401530	0.618469
C33	C	1.145587	-0.401504	0.708089
C34	C	1.156286	-0.184137	0.397552
C35	C	1.160878	-0.091471	0.393030
C36	C	1.145502	-0.401594	0.198672
C37	C	1.145646	-0.401386	0.109041
C38	C	1.145629	-0.401410	1.036260
C39	C	1.145615	-0.401439	0.944953
C40	C	1.145609	-0.401458	0.872177
C41	C	1.145594	-0.401485	0.780864
H42	H	1.078365	-0.916083	0.475295
C43	C	1.184995	-0.823834	0.271536
C44	C	1.228084	-0.873814	0.325754
H45	H	1.221408	-0.794201	0.235141
H46	H	1.156094	-0.785534	0.300381
H47	H	1.148268	-0.857876	0.242306
H48	H	1.264807	-0.839772	0.354988
H49	H	1.256998	-0.912119	0.296906
