data_functionalizedCrystal
_audit_creation_method	'MofGen! by Chris Wilmer'
_symmetry_space_group_name_H-M	'P1'
_symmetry_Int_Tables_number	1
_symmetry_cell_setting	triclinic
loop_
_symmetry_equiv_pos_as_xyz
  x,y,z
_cell_length_a	25.639242
_cell_length_b	25.639240
_cell_length_c	19.077237
_cell_angle_alpha	92.274109
_cell_angle_beta	87.679396
_cell_angle_gamma	90.026961
loop_
_atom_site_label
_atom_site_type_symbol
_atom_site_fract_x
_atom_site_fract_y
_atom_site_fract_z
Zn1	Zn	0.811127	-0.220105	-0.398122
Zn2	Zn	1.061127	0.029895	-0.148122
Zn3	Zn	1.311127	0.279895	0.101878
Zn4	Zn	1.561127	0.529895	0.351878
Zn5	Zn	0.807549	-0.304030	-0.280432
Zn6	Zn	1.057549	-0.054030	-0.030432
Zn7	Zn	1.307549	0.195970	0.219568
Zn8	Zn	1.557549	0.445970	0.469568
Zn9	Zn	0.720192	-0.216602	-0.280423
Zn10	Zn	0.970192	0.033398	-0.030423
Zn11	Zn	1.220192	0.283398	0.219577
Zn12	Zn	1.470192	0.533398	0.469577
Zn13	Zn	0.723657	-0.307502	-0.398072
Zn14	Zn	0.973657	-0.057502	-0.148072
Zn15	Zn	1.223657	0.192498	0.101928
Zn16	Zn	1.473657	0.442498	0.351928
O17	O	0.765631	-0.262060	-0.339262
O18	O	1.015631	-0.012060	-0.089262
O19	O	1.265631	0.237940	0.160738
O20	O	1.515631	0.487940	0.410738
O21	O	0.883818	-0.231251	-0.382535
O22	O	1.133818	0.018749	-0.132535
O23	O	1.383818	0.268749	0.117465
O24	O	1.633818	0.518749	0.367465
O25	O	0.793014	-0.289513	-0.181941
O26	O	1.043014	-0.039513	0.068059
O27	O	1.293014	0.210487	0.318059
O28	O	1.543014	0.460487	0.568059
O29	O	0.732301	-0.143902	-0.296053
O30	O	0.982301	0.106098	-0.046053
O31	O	1.232301	0.356098	0.203947
O32	O	1.482301	0.606098	0.453947
O33	O	0.881190	-0.292910	-0.296069
O34	O	1.131190	-0.042910	-0.046069
O35	O	1.381190	0.207090	0.203931
O36	O	1.631190	0.457090	0.453931
O37	O	0.799111	-0.146476	-0.382526
O38	O	1.049111	0.103524	-0.132526
O39	O	1.299111	0.353524	0.117474
O40	O	1.549111	0.603524	0.367474
O41	O	0.728832	-0.225281	-0.181934
O42	O	0.978832	0.024719	0.068066
O43	O	1.228832	0.274719	0.318066
O44	O	1.478832	0.524719	0.568066
O45	O	0.647485	-0.228647	-0.296004
O46	O	0.897485	0.021353	-0.046004
O47	O	1.147485	0.271353	0.203996
O48	O	1.397485	0.521353	0.453996
O49	O	0.738207	-0.298828	-0.496569
O50	O	0.988207	-0.048828	-0.246569
O51	O	1.238207	0.201172	0.003431
O52	O	1.488207	0.451172	0.253431
O53	O	0.650031	-0.295431	-0.382441
O54	O	0.900031	-0.045431	-0.132441
O55	O	1.150031	0.204569	0.117559
O56	O	1.400031	0.454569	0.367559
O57	O	0.802471	-0.234618	-0.496606
O58	O	1.052471	0.015382	-0.246606
O59	O	1.302471	0.265382	0.003394
O60	O	1.552471	0.515382	0.253394
O61	O	0.796374	-0.377655	-0.296021
O62	O	1.046374	-0.127655	-0.046021
O63	O	1.296374	0.122345	0.203979
O64	O	1.546374	0.372345	0.453979
O65	O	0.734738	-0.380206	-0.382450
O66	O	0.984738	-0.130206	-0.132450
O67	O	1.234738	0.119794	0.117550
O68	O	1.484738	0.369794	0.367550
C69	C	0.629787	-0.262036	-0.339217
C70	C	0.879787	-0.012036	-0.089217
C71	C	1.129787	0.237964	0.160783
C72	C	1.379787	0.487964	0.410783
C73	C	0.571673	-0.262039	-0.339214
C74	C	0.821673	-0.012039	-0.089214
C75	C	1.071673	0.237961	0.160786
C76	C	1.321673	0.487961	0.410786
C77	C	0.319149	-0.227232	-0.294333
C78	C	0.569149	0.022768	-0.044333
C79	C	0.819149	0.272768	0.205667
C80	C	1.069149	0.522768	0.455667
C81	C	0.373753	-0.227227	-0.294324
C82	C	0.623753	0.022773	-0.044324
C83	C	0.873753	0.272773	0.205676
C84	C	1.123753	0.522773	0.455676
O85	O	0.400857	-0.197600	-0.256125
O86	O	0.650857	0.052400	-0.006125
O87	O	0.900857	0.302400	0.243875
O88	O	1.150857	0.552400	0.493875
N89	N	0.402400	-0.262047	-0.339249
N90	N	0.652400	-0.012047	-0.089249
N91	N	0.902400	0.237953	0.160751
N92	N	1.152400	0.487953	0.410751
C93	C	0.376441	-0.296871	-0.384191
C94	C	0.626441	-0.046871	-0.134191
C95	C	0.876441	0.203129	0.115809
C96	C	1.126441	0.453129	0.365809
O97	O	0.405821	-0.326487	-0.422403
O98	O	0.655821	-0.076487	-0.172403
O99	O	0.905821	0.173513	0.077597
O100	O	1.155821	0.423513	0.327597
C101	C	0.321838	-0.296873	-0.384203
C102	C	0.571838	-0.046873	-0.134203
C103	C	0.821838	0.203127	0.115797
C104	C	1.071838	0.453127	0.365797
C105	C	0.293193	-0.262054	-0.339270
C106	C	0.543193	-0.012054	-0.089270
C107	C	0.793193	0.237946	0.160730
C108	C	1.043193	0.487946	0.410730
C109	C	0.290504	-0.192416	-0.249404
C110	C	0.540504	0.057584	0.000596
C111	C	0.790504	0.307584	0.250596
C112	C	1.040504	0.557584	0.500596
C113	C	0.235904	-0.192422	-0.249412
C114	C	0.485904	0.057578	0.000588
C115	C	0.735904	0.307578	0.250588
C116	C	0.985904	0.557578	0.500588
C117	C	0.209948	-0.227244	-0.294349
C118	C	0.459948	0.022756	-0.044349
C119	C	0.709948	0.272756	0.205651
C120	C	0.959948	0.522756	0.455651
C121	C	0.238593	-0.262060	-0.339278
C122	C	0.488593	-0.012060	-0.089278
C123	C	0.738593	0.237940	0.160722
C124	C	0.988593	0.487940	0.410722
C125	C	0.295880	-0.331694	-0.429148
C126	C	0.545880	-0.081694	-0.179148
C127	C	0.795880	0.168306	0.070852
C128	C	1.045880	0.418306	0.320852
C129	C	0.241273	-0.331693	-0.429157
C130	C	0.491273	-0.081693	-0.179157
C131	C	0.741273	0.168307	0.070843
C132	C	0.991273	0.418307	0.320843
C133	C	0.212628	-0.296874	-0.384224
C134	C	0.462628	-0.046874	-0.134224
C135	C	0.712628	0.203126	0.115776
C136	C	0.962628	0.453126	0.365776
C137	C	0.158037	-0.296888	-0.384224
C138	C	0.408037	-0.046888	-0.134224
C139	C	0.658037	0.203112	0.115776
C140	C	0.908037	0.453112	0.365776
N141	N	0.129390	-0.262068	-0.339298
N142	N	0.379390	-0.012068	-0.089298
N143	N	0.629390	0.237932	0.160702
N144	N	0.879390	0.487932	0.410702
C145	C	0.155345	-0.227246	-0.294361
C146	C	0.405345	0.022754	-0.044361
C147	C	0.655345	0.272754	0.205639
C148	C	0.905345	0.522754	0.455639
C149	C	0.491111	-0.296863	-0.384164
C150	C	0.741111	-0.046863	-0.134164
C151	C	0.991111	0.203137	0.115836
C152	C	1.241111	0.453137	0.365836
C153	C	0.545712	-0.296864	-0.384149
C154	C	0.795712	-0.046864	-0.134149
C155	C	1.045712	0.203136	0.115851
C156	C	1.295712	0.453136	0.365851
C157	C	0.543021	-0.227219	-0.294282
C158	C	0.793021	0.022781	-0.044282
C159	C	1.043021	0.272781	0.205718
C160	C	1.293021	0.522781	0.455718
C161	C	0.488418	-0.227221	-0.294294
C162	C	0.738418	0.022779	-0.044294
C163	C	0.988418	0.272779	0.205706
C164	C	1.238418	0.522779	0.455706
C165	C	0.462463	-0.262043	-0.339238
C166	C	0.712463	-0.012043	-0.089238
C167	C	0.962463	0.237957	0.160762
C168	C	1.212463	0.487957	0.410762
C169	C	0.040681	-0.227261	-0.294381
C170	C	0.290681	0.022739	-0.044381
C171	C	0.540681	0.272739	0.205619
C172	C	0.790681	0.522739	0.455619
C173	C	-0.013924	-0.227272	-0.294392
C174	C	0.236076	0.022728	-0.044392
C175	C	0.486076	0.272728	0.205608
C176	C	0.736076	0.522728	0.455608
C177	C	-0.011228	-0.296914	-0.384260
C178	C	0.238772	-0.046914	-0.134260
C179	C	0.488772	0.203086	0.115740
C180	C	0.738772	0.453086	0.365740
C181	C	0.043372	-0.296906	-0.384248
C182	C	0.293372	-0.046906	-0.134248
C183	C	0.543372	0.203094	0.115752
C184	C	0.793372	0.453094	0.365752
C185	C	0.069325	-0.262075	-0.339306
C186	C	0.319325	-0.012075	-0.089306
C187	C	0.569325	0.237925	0.160694
C188	C	0.819325	0.487925	0.410694
O189	O	0.130898	-0.326498	-0.422405
O190	O	0.380898	-0.076498	-0.172405
O191	O	0.630898	0.173502	0.077595
O192	O	0.880898	0.423502	0.327595
O193	O	0.125959	-0.197630	-0.256162
O194	O	0.375959	0.052370	-0.006162
O195	O	0.625959	0.302370	0.243838
O196	O	0.875959	0.552370	0.493838
C197	C	0.765558	-0.397902	-0.339246
C198	C	1.015558	-0.147902	-0.089246
C199	C	1.265558	0.102098	0.160754
C200	C	1.515558	0.352098	0.410754
C201	C	0.765576	-0.456016	-0.339263
C202	C	1.015576	-0.206016	-0.089263
C203	C	1.265576	0.043984	0.160737
C204	C	1.515576	0.293984	0.410737
C205	C	0.800417	-0.708500	-0.384335
C206	C	1.050417	-0.458500	-0.134335
C207	C	1.300417	-0.208500	0.115665
C208	C	1.550417	0.041500	0.365665
C209	C	0.800401	-0.653896	-0.384330
C210	C	1.050401	-0.403896	-0.134330
C211	C	1.300401	-0.153896	0.115670
C212	C	1.550401	0.096104	0.365670
O213	O	0.829964	-0.626755	-0.422628
O214	O	1.079964	-0.376755	-0.172628
O215	O	1.329964	-0.126755	0.077372
O216	O	1.579964	0.123245	0.327372
N217	N	0.765633	-0.625291	-0.339272
N218	N	1.015633	-0.375291	-0.089272
N219	N	1.265633	-0.125291	0.160728
N220	N	1.515633	0.124709	0.410728
C221	C	0.730882	-0.651293	-0.294211
C222	C	0.980882	-0.401293	-0.044211
C223	C	1.230882	-0.151293	0.205789
C224	C	1.480882	0.098707	0.455789
O225	O	0.701308	-0.621948	-0.255885
O226	O	0.951308	-0.371948	-0.005885
O227	O	1.201308	-0.121948	0.244115
O228	O	1.451308	0.128052	0.494115
C229	C	0.730901	-0.705896	-0.294213
C230	C	0.980901	-0.455896	-0.044213
C231	C	1.230901	-0.205896	0.205787
C232	C	1.480901	0.044104	0.455787
C233	C	0.765668	-0.734498	-0.339279
C234	C	1.015668	-0.484498	-0.089279
C235	C	1.265668	-0.234498	0.160721
C236	C	1.515668	0.015502	0.410721
C237	C	0.835182	-0.737102	-0.429397
C238	C	1.085182	-0.487102	-0.179397
C239	C	1.335182	-0.237102	0.070603
C240	C	1.585182	0.012898	0.320603
C241	C	0.835197	-0.791703	-0.429403
C242	C	1.085197	-0.541703	-0.179403
C243	C	1.335197	-0.291703	0.070597
C244	C	1.585197	-0.041703	0.320597
C245	C	0.800447	-0.817702	-0.384347
C246	C	1.050447	-0.567702	-0.134347
C247	C	1.300447	-0.317702	0.115653
C248	C	1.550447	-0.067702	0.365653
C249	C	0.765683	-0.789099	-0.339285
C250	C	1.015683	-0.539099	-0.089285
C251	C	1.265683	-0.289099	0.160715
C252	C	1.515683	-0.039099	0.410715
C253	C	0.696153	-0.731897	-0.249150
C254	C	0.946153	-0.481897	0.000850
C255	C	1.196153	-0.231897	0.250850
C256	C	1.446153	0.018103	0.500850
C257	C	0.696175	-0.786504	-0.249155
C258	C	0.946175	-0.536504	0.000845
C259	C	1.196175	-0.286504	0.250845
C260	C	1.446175	-0.036504	0.500845
C261	C	0.730942	-0.815107	-0.294221
C262	C	0.980942	-0.565107	-0.044221
C263	C	1.230942	-0.315107	0.205779
C264	C	1.480942	-0.065107	0.455779
C265	C	0.730949	-0.869698	-0.294236
C266	C	0.980949	-0.619698	-0.044236
C267	C	1.230949	-0.369698	0.205764
C268	C	1.480949	-0.119698	0.455764
N269	N	0.765717	-0.898303	-0.339294
N270	N	1.015717	-0.648303	-0.089294
N271	N	1.265717	-0.398303	0.160706
N272	N	1.515717	-0.148303	0.410706
C273	C	0.800466	-0.872305	-0.384349
C274	C	1.050466	-0.622305	-0.134349
C275	C	1.300466	-0.372305	0.115651
C276	C	1.550466	-0.122305	0.365651
C277	C	0.730846	-0.536622	-0.294209
C278	C	0.980846	-0.286622	-0.044209
C279	C	1.230846	-0.036622	0.205791
C280	C	1.480846	0.213378	0.455791
C281	C	0.730824	-0.482020	-0.294209
C282	C	0.980824	-0.232020	-0.044209
C283	C	1.230824	0.017980	0.205791
C284	C	1.480824	0.267980	0.455791
C285	C	0.800344	-0.484626	-0.384327
C286	C	1.050344	-0.234626	-0.134327
C287	C	1.300344	0.015374	0.115673
C288	C	1.550344	0.265374	0.365673
C289	C	0.800363	-0.539230	-0.384330
C290	C	1.050363	-0.289230	-0.134330
C291	C	1.300363	-0.039230	0.115670
C292	C	1.550363	0.210770	0.365670
C293	C	0.765614	-0.565227	-0.339267
C294	C	1.015614	-0.315227	-0.089267
C295	C	1.265614	-0.065227	0.160733
C296	C	1.515614	0.184773	0.410733
C297	C	0.800495	-0.986970	-0.384359
C298	C	1.050495	-0.736970	-0.134359
C299	C	1.300495	-0.486970	0.115641
C300	C	1.550495	-0.236970	0.365641
C301	C	0.800505	-1.041576	-0.384363
C302	C	1.050505	-0.791576	-0.134363
C303	C	1.300505	-0.541576	0.115637
C304	C	1.550505	-0.291576	0.365637
C305	C	0.730988	-1.038964	-0.294243
C306	C	0.980988	-0.788964	-0.044243
C307	C	1.230988	-0.538964	0.205757
C308	C	1.480988	-0.288964	0.455757
C309	C	0.730975	-0.984364	-0.294241
C310	C	0.980975	-0.734364	-0.044241
C311	C	1.230975	-0.484364	0.205759
C312	C	1.480975	-0.234364	0.455759
C313	C	0.765733	-0.958368	-0.339302
C314	C	1.015733	-0.708368	-0.089302
C315	C	1.265733	-0.458368	0.160698
C316	C	1.515733	-0.208368	0.410698
O317	O	0.701403	-0.896874	-0.255955
O318	O	0.951403	-0.646874	-0.005955
O319	O	1.201403	-0.396874	0.244045
O320	O	1.451403	-0.146874	0.494045
O321	O	0.830040	-0.901656	-0.422663
O322	O	1.080040	-0.651656	-0.172663
O323	O	1.330040	-0.401656	0.077337
O324	O	1.580040	-0.151656	0.327337
C325	C	0.902005	-0.262084	-0.339309
C326	C	1.152005	-0.012084	-0.089309
C327	C	1.402005	0.237916	0.160691
C328	C	1.652005	0.487916	0.410691
C329	C	0.960120	-0.262094	-0.339329
C330	C	1.210120	-0.012094	-0.089329
C331	C	1.460120	0.237906	0.160671
C332	C	1.710120	0.487906	0.410671
C333	C	0.771125	-0.267501	-0.522839
C334	C	1.021125	-0.017501	-0.272839
C335	C	1.271125	0.232499	-0.022839
C336	C	1.521125	0.482499	0.227161
C337	C	0.773466	-0.269819	-0.601068
C338	C	1.023466	-0.019819	-0.351068
C339	C	1.273466	0.230181	-0.101068
C340	C	1.523466	0.480181	0.148932
C341	C	0.765719	-0.125688	-0.339294
C342	C	1.015719	0.124312	-0.089294
C343	C	1.265719	0.374312	0.160706
C344	C	1.515719	0.624312	0.410706
C345	C	0.765756	-0.067574	-0.339308
C346	C	1.015756	0.182426	-0.089308
C347	C	1.265756	0.432426	0.160692
C348	C	1.515756	0.682426	0.410692
C349	C	0.790260	-0.286488	-1.041416
C350	C	1.040260	-0.036488	-0.791416
C351	C	1.290260	0.213512	-0.541416
C352	C	1.540260	0.463512	-0.291416
C353	C	0.788053	-0.284306	-0.967911
C354	C	1.038053	-0.034306	-0.717911
C355	C	1.288053	0.215694	-0.467911
C356	C	1.538053	0.465694	-0.217911
C357	C	0.753537	-0.249770	-0.931163
C358	C	1.003537	0.000230	-0.681163
C359	C	1.253537	0.250230	-0.431163
C360	C	1.503537	0.500230	-0.181163
C361	C	0.721222	-0.217417	-0.967924
C362	C	0.971222	0.032583	-0.717924
C363	C	1.221222	0.282583	-0.467924
C364	C	1.471222	0.532583	-0.217924
C365	C	0.723427	-0.219602	-1.041427
C366	C	0.973427	0.030398	-0.791427
C367	C	1.223427	0.280398	-0.541427
C368	C	1.473427	0.530398	-0.291427
C369	C	0.743356	-0.239652	-0.711332
C370	C	0.993356	0.010348	-0.461332
C371	C	1.243356	0.260348	-0.211332
C372	C	1.493356	0.510348	0.038668
C373	C	0.741155	-0.237468	-0.637823
C374	C	0.991155	0.012532	-0.387823
C375	C	1.241155	0.262532	-0.137823
C376	C	1.491155	0.512532	0.112177
C377	C	0.807985	-0.304358	-0.637816
C378	C	1.057985	-0.054358	-0.387816
C379	C	1.307985	0.195642	-0.137816
C380	C	1.557985	0.445642	0.112184
C381	C	0.810190	-0.306537	-0.711321
C382	C	1.060190	-0.056537	-0.461321
C383	C	1.310190	0.193463	-0.211321
C384	C	1.560190	0.443463	0.038679
C385	C	0.777873	-0.274187	-0.748075
C386	C	1.027873	-0.024187	-0.498075
C387	C	1.277873	0.225813	-0.248075
C388	C	1.527873	0.475813	0.001925
N389	N	0.751281	-0.247538	-0.856030
N390	N	1.001281	0.002462	-0.606030
N391	N	1.251281	0.252462	-0.356030
N392	N	1.501281	0.502462	-0.106030
N393	N	0.780127	-0.276422	-0.823207
N394	N	1.030127	-0.026422	-0.573207
N395	N	1.280127	0.223578	-0.323207
N396	N	1.530127	0.473578	-0.073207
C397	C	0.760189	-0.256602	-0.156400
C398	C	1.010189	-0.006602	0.093600
C399	C	1.260189	0.243398	0.343600
C400	C	1.510189	0.493398	0.593600
C401	C	0.757949	-0.254136	-0.078171
C402	C	1.007949	-0.004136	0.171829
C403	C	1.257949	0.245864	0.421829
C404	C	1.507949	0.495864	0.671829
H405	H	0.569030	-0.325222	-0.420730
H406	H	0.819030	-0.075222	-0.170730
H407	H	1.069030	0.174778	0.079270
H408	H	1.319030	0.424778	0.329270
F409	F	0.693813	-0.451585	-0.246254
F410	F	0.943813	-0.201585	0.003746
F411	F	1.193813	0.048415	0.253746
F412	F	1.443813	0.298415	0.503746
H413	H	-0.037244	-0.198917	-0.257799
H414	H	0.212756	0.051083	-0.007799
H415	H	0.462756	0.301083	0.242201
H416	H	0.712756	0.551083	0.492201
F417	F	0.463492	-0.333931	-0.431998
F418	F	0.713492	-0.083931	-0.181998
F419	F	0.963492	0.166069	0.068002
F420	F	1.213492	0.416069	0.318002
H421	H	0.311632	-0.164056	-0.212811
H422	H	0.561632	0.085944	0.037189
H423	H	0.811632	0.335944	0.287189
H424	H	1.061632	0.585944	0.537189
F425	F	0.205425	-0.155358	-0.201593
F426	F	0.455425	0.094642	0.048407
F427	F	0.705425	0.344642	0.298407
F428	F	0.955425	0.594642	0.548407
H429	H	0.693116	-0.189300	-0.937997
H430	H	0.943116	0.060700	-0.687997
H431	H	1.193116	0.310700	-0.437997
H432	H	1.443116	0.560700	-0.187997
F433	F	0.837509	-1.072014	-0.432333
F434	F	1.087509	-0.822014	-0.182333
F435	F	1.337509	-0.572014	0.067667
F436	F	1.587509	-0.322014	0.317667
H437	H	0.319193	-0.360047	-0.465738
H438	H	0.569193	-0.110047	-0.215738
H439	H	0.819193	0.139953	0.034262
H440	H	1.069193	0.389953	0.284262
H441	H	0.818370	-0.314608	-1.071331
H442	H	1.068370	-0.064608	-0.821331
H443	H	1.318370	0.185392	-0.571331
H444	H	1.568370	0.435392	-0.321331
F445	F	0.689039	-0.185168	-1.080544
F446	F	0.939039	0.064832	-0.830544
F447	F	1.189039	0.314832	-0.580544
F448	F	1.439039	0.564832	-0.330544
F449	F	0.842376	-0.338785	-0.598695
F450	F	1.092376	-0.088785	-0.348695
F451	F	1.342376	0.161215	-0.098695
F452	F	1.592376	0.411215	0.151305
F453	F	0.704417	-0.200708	-0.598715
F454	F	0.954417	0.049292	-0.348715
F455	F	1.204417	0.299292	-0.098715
F456	F	1.454417	0.549292	0.151285
F457	F	0.659191	-0.814169	-0.201190
F458	F	0.909191	-0.564169	0.048810
F459	F	1.159191	-0.314169	0.298810
F460	F	1.409191	-0.064169	0.548810
F461	F	0.822444	-0.318738	-0.928797
F462	F	1.072444	-0.068738	-0.678797
F463	F	1.322444	0.181262	-0.428797
F464	F	1.572444	0.431262	-0.178797
H465	H	0.702660	-0.961075	-0.257552
H466	H	0.952660	-0.711075	-0.007552
H467	H	1.202660	-0.461075	0.242448
H468	H	1.452660	-0.211075	0.492448
F469	F	0.570655	-0.190158	-0.246456
F470	F	0.820655	0.059842	0.003544
F471	F	1.070655	0.309842	0.253544
F472	F	1.320655	0.559842	0.503544
H473	H	0.863481	-0.715939	-0.466086
H474	H	1.113481	-0.465939	-0.216086
H475	H	1.363481	-0.215939	0.033914
H476	H	1.613481	0.034061	0.283914
H477	H	0.717041	-0.213311	-0.741248
H478	H	0.967041	0.036689	-0.491248
H479	H	1.217041	0.286689	-0.241248
H480	H	1.467041	0.536689	0.008752
H481	H	0.061805	-0.198896	-0.257789
H482	H	0.311805	0.051104	-0.007789
H483	H	0.561805	0.301104	0.242211
H484	H	0.811805	0.551104	0.492211
H485	H	0.702695	-1.060142	-0.257562
H486	H	0.952695	-0.810142	-0.007562
H487	H	1.202695	-0.560142	0.242438
H488	H	1.452695	-0.310142	0.492438
H489	H	0.465099	-0.198867	-0.257708
H490	H	0.715099	0.051133	-0.007708
H491	H	0.965099	0.301133	0.242292
H492	H	1.215099	0.551133	0.492292
F493	F	0.846923	-0.343299	-0.750426
F494	F	1.096923	-0.093299	-0.500426
F495	F	1.346923	0.156701	-0.250426
F496	F	1.596923	0.406701	-0.000426
F497	F	0.872200	-0.822137	-0.477370
F498	F	1.122200	-0.572137	-0.227370
F499	F	1.372200	-0.322137	0.022630
F500	F	1.622200	-0.072137	0.272630
H501	H	0.828640	-0.463449	-0.421013
H502	H	1.078640	-0.213449	-0.171013
H503	H	1.328640	0.036551	0.078987
H504	H	1.578640	0.286551	0.328987
H505	H	0.066696	-0.325262	-0.420831
H506	H	0.316696	-0.075262	-0.170831
H507	H	0.566696	0.174738	0.079169
H508	H	0.816696	0.424738	0.329169
F509	F	0.213653	-0.368755	-0.476996
F510	F	0.463653	-0.118755	-0.226996
F511	F	0.713653	0.131245	0.023004
F512	F	0.963653	0.381245	0.273004
F513	F	0.837488	-0.959312	-0.432318
F514	F	1.087488	-0.709312	-0.182318
F515	F	1.337488	-0.459312	0.067682
F516	F	1.587488	-0.209312	0.317682
H517	H	0.702545	-0.557786	-0.257515
H518	H	0.952545	-0.307786	-0.007515
H519	H	1.202545	-0.057786	0.242485
H520	H	1.452545	0.192214	0.492485
F521	F	0.659146	-0.701468	-0.201187
F522	F	0.909146	-0.451468	0.048813
F523	F	1.159146	-0.201468	0.298813
F524	F	1.409146	0.048532	0.548813
F525	F	-0.038862	-0.333978	-0.432075
F526	F	0.211138	-0.083978	-0.182075
F527	F	0.461138	0.166022	0.067925
F528	F	0.711138	0.416022	0.317925
H529	H	0.828671	-0.562514	-0.421030
H530	H	1.078671	-0.312514	-0.171030
H531	H	1.328671	-0.062514	0.078970
H532	H	1.578671	0.187486	0.328970
