data_functionalizedCrystal
_audit_creation_method	'MofGen! by Chris Wilmer'
_symmetry_space_group_name_H-M	'P1'
_symmetry_Int_Tables_number	1
_symmetry_cell_setting	triclinic
loop_
_symmetry_equiv_pos_as_xyz
  x,y,z
_cell_length_a	12.837943
_cell_length_b	17.038272
_cell_length_c	11.892095
_cell_angle_alpha	94.170821
_cell_angle_beta	85.689438
_cell_angle_gamma	92.970248
loop_
_atom_site_label
_atom_site_type_symbol
_atom_site_fract_x
_atom_site_fract_y
_atom_site_fract_z
O1	O	1.399724	0.200065	-0.093986
O2	O	1.097028	0.189958	-0.093992
O3	O	1.246576	0.081062	-0.093980
O4	O	1.250175	0.308961	-0.093998
O5	O	1.234106	0.090126	0.094026
O6	O	1.084557	0.199022	0.094014
O7	O	1.387254	0.209129	0.094021
Zn8	Zn	1.233926	0.205514	0.123868
Zn9	Zn	1.250356	0.193572	-0.123839
O10	O	1.237705	0.318025	0.094009
C11	C	1.051871	0.191076	0.000010
C12	C	0.935896	0.180893	0.000008
C13	C	0.705733	0.303310	0.000015
C14	C	0.596764	0.293746	0.000013
C15	C	0.608986	0.152201	0.000012
C16	C	0.717955	0.161765	0.000014
C17	C	0.766325	0.237322	0.000013
C18	C	0.875296	0.246885	0.000006
C19	C	0.887516	0.105342	0.000013
C20	C	0.778547	0.095777	0.000012
C21	C	1.237069	0.056221	0.000023
C22	C	1.227305	-0.031301	0.000022
C23	C	1.316945	-0.074719	0.000026
C24	C	1.307766	-0.156956	0.000015
C25	C	1.208945	-0.195773	0.000009
C26	C	1.119299	-0.152349	0.000002
C27	C	1.128480	-0.070114	0.000005
C28	C	1.176511	-0.443954	-0.000008
C29	C	1.167337	-0.526195	-0.000007
C30	C	1.355805	-0.530796	0.000003
C31	C	1.364977	-0.448559	0.000013
C32	C	1.275331	-0.405143	0.000001
C33	C	1.199560	-0.279832	0.000001
C34	C	1.284718	-0.321086	0.000000
C35	C	1.432411	0.208011	0.000016
C36	C	1.548386	0.218194	0.000011
C37	C	1.247213	0.342865	0.000003
C38	C	1.256977	0.430387	-0.000004
N39	N	1.222720	0.213665	0.292921
N40	N	1.261569	0.185416	-0.292892
C41	C	1.339540	0.128657	0.529578
C42	C	1.331715	0.134361	0.647919
C43	C	1.199241	0.230770	0.647947
C44	C	1.207066	0.225067	0.529605
C45	C	1.277219	0.174010	0.470425
C46	C	1.285048	0.168311	0.352082
C47	C	1.152569	0.264716	0.352111
C48	C	1.144745	0.270419	0.470453
H49	H	1.397415	-0.043120	0.000037
O50	O	1.353210	0.118651	0.294766
C51	C	1.483817	0.023658	0.307236
C52	C	1.406652	0.079856	0.372281
H53	H	1.527062	-0.007711	0.369878
H54	H	1.439007	-0.021751	0.251874
H55	H	1.542565	0.058879	0.251787
H56	H	1.347886	0.044701	0.427790
H57	H	1.451532	0.125266	0.427571
O58	O	0.562114	0.078766	-0.000135
C59	C	0.545599	-0.049813	-0.097568
C60	C	0.598778	0.033316	-0.097528
H61	H	0.575204	-0.086578	-0.176314
H62	H	0.564846	-0.079100	-0.018942
H63	H	0.457308	-0.045282	-0.097508
H64	H	0.687078	0.028855	-0.097627
H65	H	0.579446	0.062571	-0.176147
O66	O	0.731684	0.022339	-0.000143
C67	C	0.715197	-0.106236	-0.097595
C68	C	0.768360	-0.023101	-0.097541
H69	H	0.744813	-0.142993	-0.176344
H70	H	0.734447	-0.135525	-0.018972
H71	H	0.626906	-0.101714	-0.097539
H72	H	0.856662	-0.027553	-0.097636
H73	H	0.749026	0.006157	-0.176156
H74	H	0.745116	0.364831	0.000012
O75	O	0.946257	0.041184	0.000163
C76	C	0.983639	-0.072149	0.097590
C77	C	0.917025	0.000467	0.097554
H78	H	0.960045	-0.105080	0.176334
H79	H	0.970422	-0.112772	0.018963
H80	H	1.069828	-0.052320	0.097532
H81	H	0.830814	-0.019291	0.097652
H82	H	0.930331	0.041073	0.176175
H83	H	1.380760	-0.192303	0.000020
H84	H	1.087625	0.311987	0.518651
O85	O	1.461054	-0.410981	-0.000028
C86	C	1.647014	-0.424222	0.000069
C87	C	1.538273	-0.466880	0.000076
H88	H	1.709473	-0.469396	0.000177
H89	H	1.661321	-0.389646	-0.078624
H90	H	1.650740	-0.382029	0.078737
H91	H	1.534469	-0.509112	-0.078538
H92	H	1.524012	-0.501405	0.078821
O93	O	1.103491	-0.317418	-0.000050
C94	C	0.917518	-0.304182	0.000016
C95	C	1.026251	-0.261515	0.000054
H96	H	0.855039	-0.259002	0.000124
H97	H	0.913666	-0.346332	-0.078687
H98	H	0.903352	-0.338806	0.078674
H99	H	1.040489	-0.226847	-0.078550
H100	H	1.030051	-0.219411	0.078809
H101	H	1.396668	0.087090	0.481393
O102	O	1.071262	-0.563782	-0.000075
C103	C	0.885292	-0.550543	-0.000044
C104	C	0.994026	-0.507877	0.000008
H105	H	0.822816	-0.505362	0.000047
H106	H	0.881449	-0.592696	-0.078745
H107	H	0.871112	-0.585162	0.078616
H108	H	1.008277	-0.473214	-0.078599
H109	H	0.997816	-0.465770	0.078760
O110	O	1.023295	-0.190028	-0.000207
C111	C	0.865843	-0.215909	-0.097583
C112	C	0.974555	-0.173211	-0.097503
H113	H	0.826397	-0.202314	-0.176226
H114	H	0.874622	-0.282154	-0.097654
H115	H	0.815998	-0.194823	-0.018869
H116	H	1.024460	-0.194231	-0.176203
H117	H	0.965698	-0.106972	-0.097373
O118	O	1.380662	-0.283301	-0.000145
C119	C	1.506883	-0.197848	-0.097566
C120	C	1.398196	-0.240590	-0.097535
H121	H	1.521103	-0.163319	-0.176310
H122	H	1.510686	-0.155621	-0.018938
H123	H	1.569361	-0.243012	-0.097505
H124	H	1.335656	-0.195483	-0.097636
H125	H	1.394482	-0.282830	-0.176156
H126	H	1.382462	0.097429	0.696078
O127	O	1.092134	0.308895	0.294704
C128	C	1.045415	0.439425	0.258574
C129	C	1.113930	0.389485	0.323635
H130	H	1.062997	0.504592	0.281959
H131	H	1.063060	0.426654	0.163812
H132	H	0.959401	0.423993	0.281846
H133	H	1.199965	0.404889	0.300458
H134	H	1.096195	0.402263	0.418382
O135	O	1.130945	0.280262	0.705400
C136	C	0.951175	0.314540	0.741614
C137	C	1.028407	0.258428	0.676494
H138	H	0.868259	0.296918	0.718249
H139	H	0.956199	0.310808	0.836367
H140	H	0.971908	0.377478	0.718375
H141	H	1.007726	0.195466	0.699638
H142	H	1.023370	0.262229	0.581756
H143	H	0.914677	0.308407	0.000008
H144	H	0.547433	0.347480	0.000018
H145	H	1.428789	-0.566154	0.000011
H146	H	1.103515	-0.408614	-0.000017
H147	H	1.055485	-0.034764	0.000002
