data_functionalizedCrystal
_audit_creation_method	'MofGen! by Chris Wilmer'
_symmetry_space_group_name_H-M	'P1'
_symmetry_Int_Tables_number	1
_symmetry_cell_setting	triclinic
loop_
_symmetry_equiv_pos_as_xyz
  x,y,z
_cell_length_a	12.759401
_cell_length_b	18.215405
_cell_length_c	12.759393
_cell_angle_alpha	90.034559
_cell_angle_beta	90.019684
_cell_angle_gamma	90.021846
loop_
_atom_site_label
_atom_site_type_symbol
_atom_site_fract_x
_atom_site_fract_y
_atom_site_fract_z
Zn1	Zn	1.606197	-0.292958	0.593993
Zn2	Zn	1.606066	-0.416045	0.418304
Zn3	Zn	1.430499	-0.292995	0.418329
Zn4	Zn	1.430463	-0.415986	0.593942
O5	O	1.518306	-0.354496	0.506142
O6	O	1.753200	-0.309295	0.570698
O7	O	1.582738	-0.399762	0.271286
O8	O	1.453875	-0.190005	0.441663
O9	O	1.753105	-0.399726	0.441620
O10	O	1.582960	-0.189979	0.570722
O11	O	1.453749	-0.309357	0.271304
O12	O	1.283473	-0.309300	0.441613
O13	O	1.453814	-0.399626	0.740969
O14	O	1.283447	-0.399661	0.570635
O15	O	1.582925	-0.309238	0.741007
O16	O	1.582703	-0.519021	0.441571
O17	O	1.453687	-0.518978	0.570611
C18	C	1.245339	-0.354479	0.506122
C19	C	1.128562	-0.354489	0.506138
C20	C	1.518205	-0.545702	0.506105
C21	C	1.518259	-0.627501	0.506125
C22	C	1.073683	-0.307376	0.439080
C23	C	0.963959	-0.307394	0.439093
C24	C	0.964003	-0.401639	0.573232
C25	C	1.073725	-0.401625	0.573213
C26	C	1.073657	-0.252962	0.361639
C27	C	0.963933	-0.252980	0.361652
C28	C	1.585505	-0.815620	0.573417
C29	C	1.585543	-0.892479	0.573437
C30	C	1.451237	-0.892620	0.438931
C31	C	1.451195	-0.815762	0.438917
C32	C	1.518334	-0.777264	0.506159
C33	C	1.518415	-0.930980	0.506192
C34	C	1.518456	-1.014314	0.506213
C35	C	1.518293	-0.693925	0.506140
C36	C	1.792339	-0.354513	0.506162
C37	C	1.909116	-0.354521	0.506171
C38	C	1.518380	-0.354422	0.780175
C39	C	1.518411	-0.354390	0.896952
C40	C	1.518436	-0.162543	0.506201
C41	C	1.518491	-0.080744	0.506226
C42	C	1.518293	-0.354517	0.233174
C43	C	1.518466	-0.354341	0.116398
C44	C	1.585648	-0.307321	0.951835
C45	C	1.585673	-0.307294	1.061559
C46	C	1.451221	-0.401412	1.061507
C47	C	1.451191	-0.401435	0.951785
C48	C	1.663277	-0.252984	0.951866
C49	C	1.663302	-0.252958	1.061590
H50	H	1.118403	-0.439996	0.627808
H51	H	1.634199	-0.198804	1.095642
H52	H	0.919341	-0.440015	0.627842
H53	H	1.396576	-0.923974	0.384183
C54	C	0.917893	-0.280466	0.257160
N55	N	0.883215	-0.301168	0.178457
H56	H	1.640173	-0.784277	0.628171
H57	H	1.103386	-0.268154	0.280224
H58	H	0.934181	-0.196003	0.383593
H59	H	1.396436	-0.439761	0.907103
H60	H	1.107720	-0.198841	0.390921
H61	H	1.640238	-0.923704	0.628208
C62	C	1.377281	-0.453158	1.121834
N63	N	1.321589	-0.492134	1.167271
H64	H	1.396492	-0.784531	0.384147
H65	H	1.740545	-0.273417	0.917830
H66	H	1.641520	-0.195990	0.922114
H67	H	1.744670	-0.268224	1.091369
