data_functionalizedCrystal
_audit_creation_method	'MofGen! by Chris Wilmer'
_symmetry_space_group_name_H-M	'P1'
_symmetry_Int_Tables_number	1
_symmetry_cell_setting	triclinic
loop_
_symmetry_equiv_pos_as_xyz
  x,y,z
_cell_length_a	6.817900
_cell_length_b	10.773890
_cell_length_c	16.015572
_cell_angle_alpha	78.657260
_cell_angle_beta	104.485554
_cell_angle_gamma	96.645716
loop_
_atom_site_label
_atom_site_type_symbol
_atom_site_fract_x
_atom_site_fract_y
_atom_site_fract_z
V1	V	-3.981582	-0.050502	-0.268981
O2	O	-4.005349	0.128722	-0.265315
O3	O	-3.899367	-0.221603	-0.265743
O4	O	-3.929007	0.005691	-0.386931
O5	O	-3.975504	-0.100146	-0.143288
V6	V	-4.470132	-0.035613	-0.254117
O7	O	-4.231812	-0.083163	-0.301587
O8	O	-4.670099	-0.002952	-0.221512
O9	O	-4.329140	0.135488	-0.257355
O10	O	-4.563762	-0.214837	-0.257784
O11	O	-4.593607	0.014031	-0.379810
O12	O	-4.299500	-0.091806	-0.136167
C13	C	-3.736277	-0.265046	-0.261139
C14	C	-3.750315	-0.404566	-0.259278
C15	C	-3.928276	-0.470961	-0.262512
C16	C	-3.942790	-0.615163	-0.260589
C17	C	-3.774085	0.024892	-0.415725
C18	C	-3.812159	0.069704	-0.512140
C19	C	-4.022186	-0.328045	-0.886530
C20	C	-4.057975	-0.285897	-0.977123
C21	C	-4.024082	-0.067837	-0.954194
C22	C	-3.988280	-0.109967	-0.863597
C23	C	-3.987337	-0.240072	-0.829772
C24	C	-3.953431	-0.021994	-0.806840
C25	C	-3.917642	-0.064121	-0.716251
C26	C	-3.916702	-0.194221	-0.682419
C27	C	-3.951549	-0.282200	-0.739184
C28	C	-3.954389	0.108111	-0.840666
C29	C	-3.919540	0.196085	-0.783909
C30	C	-3.883736	0.153958	-0.693318
C31	C	-3.882796	0.023858	-0.659487
C32	C	-3.848890	0.241937	-0.636554
C33	C	-3.813101	0.199809	-0.545965
C34	C	-3.847007	-0.018270	-0.568898
C35	C	-4.155572	0.178923	-0.261956
C36	C	-4.120770	0.318445	-0.263823
C37	C	-4.117764	-0.111013	-0.107369
C38	C	-4.058930	-0.155819	-0.010952
H39	H	-3.846213	-0.124214	-0.541356
H40	H	-3.784725	0.271446	-0.499751
H41	H	-4.069891	-0.421046	-0.266710
F42	F	-3.757672	-0.680390	-0.255115
F43	F	-4.305896	-0.616327	-0.269310
F44	F	-3.565211	-0.469799	-0.253805
F45	F	-3.950506	-0.420673	-0.703180
F46	F	-3.878618	-0.239058	-0.586005
H47	H	-4.021391	-0.433990	-0.858988
H48	H	-4.086342	-0.357546	-1.023333
H49	H	-4.024862	0.038096	-0.981747
F50	F	-3.992495	0.152944	-0.937081
H51	H	-3.920320	0.302017	-0.811462
H52	H	-3.849683	0.347869	-0.664109
