data_functionalizedCrystal
_audit_creation_method	'MofGen! by Chris Wilmer'
_symmetry_space_group_name_H-M	'P1'
_symmetry_Int_Tables_number	1
_symmetry_cell_setting	triclinic
loop_
_symmetry_equiv_pos_as_xyz
  x,y,z
_cell_length_a	13.635800
_cell_length_b	13.167930
_cell_length_c	17.982968
_cell_angle_alpha	79.894202
_cell_angle_beta	77.548040
_cell_angle_gamma	105.754568
loop_
_atom_site_label
_atom_site_type_symbol
_atom_site_fract_x
_atom_site_fract_y
_atom_site_fract_z
V1	V	-2.017029	-0.149947	0.248149
O2	O	-2.001021	0.006168	0.232590
O3	O	-2.002088	-0.296322	0.256873
O4	O	-1.990166	-0.148096	0.351621
O5	O	-2.013025	-0.143084	0.137186
V6	V	-2.257989	-0.131220	0.233611
O7	O	-2.149418	-0.191026	0.280040
O8	O	-2.350699	-0.090141	0.201721
O9	O	-2.161327	0.015155	0.224888
O10	O	-2.332696	-0.287335	0.249170
O11	O	-2.320691	-0.138083	0.344575
O12	O	-2.173249	-0.133071	0.130139
V13	V	-1.517029	-0.149947	0.248149
O14	O	-1.501021	0.006168	0.232590
O15	O	-1.502088	-0.296322	0.256873
O16	O	-1.490166	-0.148096	0.351621
O17	O	-1.513025	-0.143084	0.137186
V18	V	-1.757989	-0.131220	0.233611
O19	O	-1.649418	-0.191026	0.280040
O20	O	-1.850699	-0.090141	0.201721
O21	O	-1.661327	0.015155	0.224888
O22	O	-1.832696	-0.287335	0.249170
O23	O	-1.820691	-0.138083	0.344575
O24	O	-1.673249	-0.133071	0.130139
C25	C	-1.926927	-0.331991	0.255647
C26	C	-1.955336	-0.451657	0.263469
C27	C	-1.911719	-0.142912	0.376507
C28	C	-1.930458	-0.142367	0.461165
C29	C	-1.969936	-0.645186	0.136396
C30	C	-1.996628	-0.757622	0.143742
C31	C	-2.035420	-0.788969	0.285507
C32	C	-2.008728	-0.676532	0.278161
C33	C	-1.975985	-0.604644	0.203603
C34	C	-1.949285	-0.492205	0.196257
C35	C	-1.988085	-0.523554	0.338022
C36	C	-2.014777	-0.635991	0.345368
C37	C	-2.068159	0.050818	0.226112
C38	C	-2.029369	0.170483	0.218295
C39	C	-2.083368	-0.138258	0.105249
C40	C	-2.054247	-0.138798	0.020591
C41	C	-1.426927	-0.331991	0.255647
C42	C	-1.455336	-0.451657	0.263469
C43	C	-1.411719	-0.142912	0.376507
C44	C	-1.430458	-0.142367	0.461165
C45	C	-2.030563	-0.147506	0.505200
C46	C	-2.048164	-0.146993	0.584744
C47	C	-1.965661	-0.141349	0.620253
C48	C	-1.865547	-0.136208	0.576212
C49	C	-1.847945	-0.136713	0.496668
C50	C	-1.936532	-0.134169	0.897005
C51	C	-1.954143	-0.133668	0.976556
C52	C	-2.136751	-0.144449	0.985081
C53	C	-2.119149	-0.144954	0.905537
C54	C	-2.019035	-0.139807	0.861501
C55	C	-1.999951	-0.140361	0.775250
C56	C	-1.984747	-0.140803	0.706505
C57	C	-1.568159	0.050818	0.226112
C58	C	-1.529369	0.170483	0.218295
C59	C	-1.583368	-0.138258	0.105249
C60	C	-1.554247	-0.138798	0.020591
C61	C	-1.559999	-0.513359	0.271338
C62	C	-1.586710	-0.625802	0.278700
C63	C	-1.508755	-0.676539	0.278187
C64	C	-1.404085	-0.614830	0.270319
C65	C	-1.377377	-0.502390	0.262963
C66	C	-1.530567	-0.147495	0.505185
C67	C	-1.548185	-0.146969	0.584728
C68	C	-1.465694	-0.141323	0.620250
C69	C	-1.365576	-0.136191	0.576223
C70	C	-1.347957	-0.136710	0.496681
C71	C	-1.597200	0.232184	0.210427
C72	C	-1.560761	0.344626	0.203069
C73	C	-1.456493	0.395363	0.203584
C74	C	-1.388656	0.333655	0.211450
C75	C	-1.425093	0.221216	0.218802
C76	C	-1.454507	-0.144432	-0.014913
C77	C	-1.427127	-0.144926	-0.094461
C78	C	-1.499492	-0.139794	-0.138502
C79	C	-1.599240	-0.134156	-0.102993
C80	C	-1.626616	-0.133655	-0.023448
H81	H	-1.922618	-0.433674	0.135548
N82	N	-1.739970	-0.131164	0.449172
H83	H	-1.720842	-0.195791	0.473286
H84	H	-1.741410	-0.132299	0.393403
H85	H	-1.798371	-0.131606	0.605129
H86	H	-1.658152	-0.129975	-0.138864
N87	N	-1.484695	-0.140729	0.706037
H88	H	-1.560633	-0.144826	0.728526
H89	H	-1.470771	-0.205552	0.735629
H90	H	-1.292148	-0.452160	0.256552
N91	N	-2.050086	-0.713517	0.425784
H92	H	-2.116014	-0.704533	0.458345
H93	H	-2.066023	-0.790866	0.420183
N94	N	-1.319540	-0.151010	-0.132742
H95	H	-1.311038	-0.220355	-0.104893
H96	H	-1.313230	-0.150497	-0.189815
N97	N	-1.320009	-0.669561	0.269746
H98	H	-1.340203	-0.726632	0.320804
H99	H	-1.313893	-0.705237	0.224368
N100	N	-1.934605	-0.567649	0.055982
H101	H	-1.992862	-0.584100	0.029119
H102	H	-1.918595	-0.490300	0.061587
N103	N	-1.619553	-0.153571	0.466888
H104	H	-1.598578	-0.086950	0.421933
H105	H	-1.634029	-0.221137	0.446268
N106	N	-1.734196	-0.127576	0.014840
H107	H	-1.775877	-0.124402	-0.025135
H108	H	-1.773653	-0.194208	0.059795
H109	H	-1.629713	-0.151152	0.620564
H110	H	-1.369852	0.170986	0.225214
H111	H	-1.266437	-0.132536	0.460846
N112	N	-1.990110	-0.801352	0.071255
H113	H	-1.965318	-0.738747	0.022912
H114	H	-1.938240	-0.843581	0.068361
N115	N	-1.276608	-0.130108	0.614540
H116	H	-1.262119	-0.062585	0.635213
H117	H	-1.297656	-0.196778	0.659463
N118	N	-2.070789	-0.866516	0.365919
H119	H	-2.086797	-0.943895	0.360372
H120	H	-2.012520	-0.850000	0.392762
N121	N	-1.994603	-0.479830	0.410516
H122	H	-1.972722	-0.397693	0.394551
H123	H	-2.069837	-0.510063	0.445608
H124	H	-1.682105	0.190889	0.210007
N125	N	-1.644089	-0.458648	0.271905
H126	H	-1.623905	-0.401590	0.220841
H127	H	-1.714409	-0.514881	0.278044
H128	H	-1.395569	-0.148611	0.020935
H129	H	-1.616012	0.394854	0.196667
H130	H	-1.671941	-0.676030	0.285103
H131	H	-1.426836	0.486919	0.197597
N132	N	-1.469968	-0.140350	-0.224294
H133	H	-1.472814	-0.071287	-0.257274
H134	H	-1.395812	-0.144744	-0.240029
H135	H	-2.186335	-0.149555	0.876631
N136	N	-1.276199	0.388379	0.212013
H137	H	-1.237434	0.445447	0.160952
H138	H	-1.277163	0.424059	0.257388
N139	N	-1.865137	-0.127576	1.014840
H140	H	-1.850639	-0.060058	1.035519
H141	H	-1.886153	-0.194251	1.059755
N142	N	-2.119552	-0.153601	0.466905
H143	H	-2.185638	-0.156776	0.506873
H144	H	-2.098496	-0.086971	0.421947
H145	H	-2.218269	-0.148636	1.020944
N146	N	-2.156137	-0.152523	0.632227
H147	H	-2.210722	-0.222039	0.632389
H148	H	-2.154683	-0.151291	0.687981
N149	N	-1.828558	-0.128614	0.849515
H150	H	-1.778968	-0.124965	0.884083
H151	H	-1.834999	-0.195659	0.828461
N152	N	-1.537560	-0.797810	0.286107
H153	H	-1.521339	-0.833406	0.334433
H154	H	-1.615690	-0.829103	0.291131
