data_functionalizedCrystal
_audit_creation_method	'MofGen! by Chris Wilmer'
_symmetry_space_group_name_H-M	'P1'
_symmetry_Int_Tables_number	1
_symmetry_cell_setting	triclinic
loop_
_symmetry_equiv_pos_as_xyz
  x,y,z
_cell_length_a	17.699083
_cell_length_b	16.992695
_cell_length_c	16.776229
_cell_angle_alpha	89.993259
_cell_angle_beta	89.998886
_cell_angle_gamma	86.975619
loop_
_atom_site_label
_atom_site_type_symbol
_atom_site_fract_x
_atom_site_fract_y
_atom_site_fract_z
O1	O	1.010251	0.099146	-0.066177
O2	O	0.790676	0.112045	-0.066203
O3	O	0.899583	-0.008546	-0.066184
O4	O	0.901344	0.219736	-0.066196
O5	O	0.899568	-0.008553	0.066393
O6	O	0.790660	0.112037	0.066374
O7	O	1.010235	0.099138	0.066400
Zn8	Zn	0.900445	0.105587	0.087436
Zn9	Zn	0.900466	0.105596	-0.087239
O10	O	0.901328	0.219729	0.066381
C11	C	0.762442	0.111579	0.000082
C12	C	0.678338	0.110192	0.000072
C13	C	0.634124	0.180976	0.000069
C14	C	0.555099	0.179669	0.000079
C15	C	0.520290	0.107576	0.000087
C16	C	0.564510	0.036787	0.000093
C17	C	0.643533	0.038095	0.000089
C18	C	0.245818	0.031509	0.000113
C19	C	0.166789	0.030206	0.000116
C20	C	0.157384	0.173082	0.000104
C21	C	0.236408	0.174391	0.000099
C22	C	0.280621	0.103602	0.000109
C23	C	0.366308	0.105020	0.000099
C24	C	0.434604	0.106157	0.000091
C25	C	0.897311	-0.037758	0.000104
C26	C	0.890554	-0.124789	0.000103
C27	C	0.955751	-0.175154	0.000112
C28	C	0.949398	-0.256928	0.000104
C29	C	0.877846	-0.288336	0.000092
C30	C	0.812643	-0.237965	0.000081
C31	C	0.818998	-0.156192	0.000084
C32	C	0.851510	-0.531884	0.000078
C33	C	0.845160	-0.613663	0.000078
C34	C	0.981915	-0.632621	0.000099
C35	C	0.988263	-0.550845	0.000106
C36	C	0.923061	-0.500481	0.000091
N37	N	0.871350	-0.371923	0.000086
N38	N	0.929558	-0.416897	0.000091
C39	C	1.038469	0.099604	0.000113
C40	C	1.122574	0.100991	0.000118
C41	C	0.903601	0.248941	0.000091
C42	C	0.910358	0.335972	0.000087
N43	N	0.900437	0.105579	0.206647
N44	N	0.900481	0.105597	-0.206450
C45	C	0.948678	0.052204	0.248373
C46	C	0.948682	0.052203	0.331825
C47	C	0.900448	0.105582	0.373550
C48	C	0.852202	0.158961	0.331819
C49	C	0.852194	0.158957	0.248368
C50	C	0.852230	0.158976	0.668366
C51	C	0.852243	0.158977	0.751822
C52	C	0.948718	0.052222	0.751823
C53	C	0.948710	0.052219	0.668372
C54	C	0.900461	0.105594	0.626648
C55	C	0.900456	0.105593	0.536160
C56	C	0.900456	0.105588	0.464037
H57	H	1.014017	-0.149588	0.000126
H58	H	1.002489	-0.297933	0.000112
O59	O	0.288647	-0.037325	0.000085
C60	C	0.240975	-0.101233	0.000111
H61	H	0.183267	-0.081217	-0.024991
H62	H	0.234014	-0.123338	0.063717
C63	C	0.347136	-0.192803	-0.021043
C64	C	0.276259	-0.168221	-0.051880
H65	H	0.368901	-0.234126	-0.053110
H66	H	0.379254	-0.149748	-0.021058
H67	H	0.341325	-0.211219	0.031961
H68	H	0.282072	-0.149796	-0.104880
H69	H	0.244143	-0.211274	-0.051876
H70	H	0.121377	0.230722	0.000100
O71	O	0.995541	0.000257	0.792269
C72	C	0.978534	-0.077338	0.771902
H73	H	0.949367	-0.077203	0.711314
H74	H	0.939402	-0.101535	0.818875
C75	C	1.088043	-0.129765	0.842463
C76	C	1.052225	-0.129599	0.768044
H77	H	1.133498	-0.162003	0.840086
H78	H	1.099500	-0.077488	0.856188
H79	H	1.055425	-0.149926	0.881599
H80	H	1.084840	-0.109428	0.728911
H81	H	1.040776	-0.181874	0.754312
H82	H	1.034999	-0.673635	0.000110
O83	O	0.995583	0.000442	0.207791
C84	C	1.044794	0.042335	0.159466
H85	H	1.049861	0.104159	0.184602
H86	H	1.021323	0.046491	0.096235
C87	C	1.117188	-0.076962	0.127265
C88	C	1.123416	-0.001031	0.158142
H89	H	1.165685	-0.103713	0.126445
H90	H	1.084032	-0.105187	0.159820
H91	H	1.097626	-0.073489	0.074576
H92	H	1.142968	-0.004505	0.210833
H93	H	1.156577	0.027193	0.125595
O94	O	0.743095	-0.268379	0.000174
C95	C	0.703047	-0.242651	0.068840
H96	H	0.727101	-0.185978	0.091736
H97	H	0.708940	-0.289994	0.116921
C98	C	0.589305	-0.296758	0.019847
C99	C	0.618844	-0.227147	0.047965
H100	H	0.537363	-0.287197	0.006972
H101	H	0.616286	-0.314094	-0.026413
H102	H	0.594222	-0.336203	0.059919
H103	H	0.613934	-0.187706	0.007889
H104	H	0.591860	-0.209804	0.094218
O105	O	0.667847	0.251058	-0.000047
C106	C	0.645684	0.294193	-0.068720
H107	H	0.589646	0.272929	-0.091607
H108	H	0.690810	0.285032	-0.116803
C109	C	0.705042	0.408532	-0.019758
C110	C	0.636212	0.382419	-0.047864
H111	H	0.699202	0.462954	-0.006895
H112	H	0.719976	0.379470	0.026508
H113	H	0.742640	0.400890	-0.059831
H114	H	0.598618	0.390051	-0.007787
H115	H	0.621271	0.411484	-0.094122
H116	H	1.046528	-0.525279	0.000115
H117	H	0.812910	0.202420	0.214396
O118	O	0.530735	-0.033265	0.000241
C119	C	0.552922	-0.076420	0.068895
H120	H	0.571891	-0.034263	0.116885
H121	H	0.601727	-0.120202	0.053372
C122	C	0.462310	-0.173139	0.041088
C123	C	0.485602	-0.121361	0.100033
H124	H	0.420785	-0.200865	0.060294
H125	H	0.447363	-0.144067	-0.005167
H126	H	0.502987	-0.209618	0.028158
H127	H	0.444928	-0.084878	0.112954
H128	H	0.500540	-0.150428	0.146291
O129	O	0.788195	-0.482938	-0.000072
C130	C	0.787790	-0.435050	-0.068726
H131	H	0.824686	-0.465064	-0.116712
H132	H	0.810964	-0.375621	-0.053201
C133	C	0.660883	-0.385614	-0.040934
C134	C	0.706195	-0.422480	-0.099873
H135	H	0.610551	-0.377856	-0.060145
H136	H	0.661156	-0.417874	0.005322
H137	H	0.680204	-0.336093	-0.028001
H138	H	0.686879	-0.472004	-0.112797
H139	H	0.705916	-0.390227	-0.146131
H140	H	0.786891	-0.639232	0.000082
O141	O	0.805343	0.210902	0.627966
C142	C	0.762764	0.258003	0.682691
H143	H	0.793854	0.258849	0.742171
H144	H	0.705010	0.232619	0.691582
C145	C	0.714086	0.341563	0.577058
C146	C	0.752275	0.342607	0.650111
H147	H	0.707613	0.393749	0.556961
H148	H	0.742770	0.309828	0.540188
H149	H	0.665962	0.320405	0.584477
H150	H	0.800402	0.363755	0.642690
H151	H	0.723599	0.374347	0.686980
O152	O	0.995531	0.000415	0.627740
C153	C	1.044744	0.042231	0.579345
H154	H	1.049943	0.104035	0.604481
H155	H	1.021190	0.046439	0.516151
C156	C	1.116912	-0.077172	0.547017
C157	C	1.123303	-0.001265	0.577894
H158	H	1.165370	-0.104003	0.546118
H159	H	1.083755	-0.105346	0.579619
H160	H	1.097281	-0.073655	0.494358
H161	H	1.142925	-0.004784	0.630555
H162	H	1.156465	0.026907	0.545300
O163	O	0.805236	0.210733	0.372314
C164	C	0.729552	0.198093	0.351921
H165	H	0.725390	0.135321	0.328990
H166	H	0.709943	0.241576	0.303478
C167	C	0.684104	0.287437	0.454223
C168	C	0.678990	0.210338	0.426065
H169	H	0.652913	0.294994	0.499956
H170	H	0.735093	0.295956	0.467961
H171	H	0.667764	0.323665	0.413847
H172	H	0.695339	0.174113	0.466437
H173	H	0.628002	0.201813	0.412335
H174	H	0.138450	-0.028504	0.000123
H175	H	0.519103	0.237308	0.000075
H176	H	0.264745	0.233096	0.000089
H177	H	0.679531	-0.019545	0.000091
H178	H	0.765906	-0.115186	0.000077
H179	H	0.987963	0.008740	0.365798
H180	H	0.812962	0.202447	0.785794
