data_functionalizedCrystal
_audit_creation_method	'MofGen! by Chris Wilmer'
_symmetry_space_group_name_H-M	'P1'
_symmetry_Int_Tables_number	1
_symmetry_cell_setting	triclinic
loop_
_symmetry_equiv_pos_as_xyz
  x,y,z
_cell_length_a	15.995292
_cell_length_b	15.995350
_cell_length_c	16.176319
_cell_angle_alpha	89.995430
_cell_angle_beta	89.991411
_cell_angle_gamma	83.480495
loop_
_atom_site_label
_atom_site_type_symbol
_atom_site_fract_x
_atom_site_fract_y
_atom_site_fract_z
O1	O	1.111019	0.107697	-0.068765
O2	O	0.867237	0.121075	-0.068761
O3	O	0.995792	-0.007503	-0.068762
O4	O	0.982464	0.236275	-0.068764
O5	O	0.995774	-0.007511	0.068731
O6	O	0.867220	0.121067	0.068732
O7	O	1.111001	0.107689	0.068728
Cu8	Cu	0.989109	0.114377	0.081285
Cu9	Cu	0.989130	0.114387	-0.081317
O10	O	0.982447	0.236267	0.068730
C11	C	0.836033	0.120527	-0.000014
C12	C	0.743080	0.118894	-0.000013
C13	C	0.405341	0.112893	-0.000022
C14	C	0.428654	0.205697	-0.000329
C15	C	0.525329	0.207461	-0.000016
C16	C	0.572897	0.115871	-0.000018
C17	C	0.543785	0.069468	0.078495
C18	C	0.446995	0.068351	0.078557
C19	C	0.447160	0.066465	-0.077798
C20	C	0.543652	0.069905	-0.078832
C21	C	0.667593	0.117549	-0.000013
C22	C	0.310646	0.111212	-0.000022
C23	C	0.995232	-0.038702	-0.000017
C24	C	0.993580	-0.131652	-0.000022
C25	C	0.987648	-0.469398	-0.000019
C26	C	0.896094	-0.421945	-0.000326
C27	C	0.897746	-0.325255	-0.000016
C28	C	0.990591	-0.301838	-0.000021
C29	C	1.035738	-0.342930	0.078492
C30	C	1.033439	-0.439565	0.078558
C31	C	1.035350	-0.439914	-0.077797
C32	C	1.035328	-0.342969	-0.078835
C33	C	0.992259	-0.207141	-0.000019
C34	C	0.985983	-0.564095	-0.000015
C35	C	1.142206	0.108237	-0.000020
C36	C	1.235159	0.109870	-0.000027
C37	C	0.983006	0.267466	-0.000017
C38	C	0.984658	0.360416	-0.000018
N39	N	0.989100	0.114370	0.195650
N40	N	0.989145	0.114388	-0.195682
C41	C	1.046042	0.057459	0.238913
C42	C	1.046046	0.057458	0.325460
C43	C	0.989112	0.114373	0.368742
C44	C	0.932165	0.171287	0.325473
C45	C	0.932157	0.171283	0.238927
C46	C	0.932193	0.171302	0.674501
C47	C	0.932207	0.171303	0.761052
C48	C	1.046082	0.057477	0.761034
C49	C	1.046074	0.057473	0.674489
C50	C	0.989125	0.114384	0.631227
C51	C	0.989120	0.114383	0.537382
C52	C	0.989120	0.114378	0.462585
H53	H	0.418840	0.095476	-0.137307
C54	C	1.127882	-0.323850	0.082446
N55	N	1.197283	-0.309471	0.085426
C56	C	1.126802	-0.322241	-0.085242
N57	N	1.195704	-0.306633	-0.090060
H58	H	0.562229	0.103691	-0.136916
C59	C	0.869567	0.233912	0.808661
N60	N	0.822389	0.281065	0.844519
H61	H	0.576623	0.003053	-0.083576
H62	H	0.544363	0.243797	-0.056299
H63	H	0.862003	-0.297386	0.056362
H64	H	0.885824	0.217642	0.639284
C65	C	1.108722	-0.005133	0.808630
N66	N	1.155901	-0.052290	0.844478
H67	H	0.859507	-0.440466	-0.056629
C68	C	0.410752	0.111773	0.157838
N69	N	0.383457	0.144486	0.217551
H70	H	0.432444	0.000307	0.082123
C71	C	0.988933	-0.464286	0.157845
N72	N	0.955407	-0.482900	0.217564
C73	C	0.869524	0.233896	0.191338
N74	N	0.822347	0.281059	0.155494
C75	C	0.390838	0.254032	-0.076394
N76	N	0.362349	0.290438	-0.133688
C77	C	0.389447	0.253751	0.075311
N78	N	0.359916	0.289942	0.132285
C79	C	1.124244	-0.483152	0.083379
N80	N	1.192638	-0.515978	0.087015
C81	C	0.993353	-0.304591	0.157430
N82	N	0.961422	-0.275716	0.216885
C83	C	0.428253	-0.025817	-0.078519
N84	N	0.414007	-0.095322	-0.079057
C85	C	0.570863	0.112997	0.157433
N86	N	0.591254	0.145789	0.216888
C87	C	0.550187	0.256830	0.076155
N88	N	0.568909	0.294013	0.133533
C89	C	0.586865	-0.021573	0.082460
N90	N	0.619324	-0.090141	0.085451
H91	H	1.092411	0.011116	0.360685
H92	H	0.862256	-0.296822	-0.056297
H93	H	0.885804	0.217625	0.360718
C94	C	0.846876	-0.448383	0.075332
N95	N	0.809810	-0.468289	0.132325
C96	C	0.994918	-0.467645	-0.158191
N97	N	0.964456	-0.488530	-0.218740
H98	H	1.002320	-0.315710	-0.136917
H99	H	1.102853	-0.471689	-0.078329
C100	C	1.108674	-0.005154	0.191311
N101	N	1.155848	-0.052318	0.155460
H102	H	1.092438	0.011131	0.639251
