data_functionalizedCrystal
_audit_creation_method	'MofGen! by Chris Wilmer'
_symmetry_space_group_name_H-M	'P1'
_symmetry_Int_Tables_number	1
_symmetry_cell_setting	triclinic
loop_
_symmetry_equiv_pos_as_xyz
  x,y,z
_cell_length_a	14.519731
_cell_length_b	11.792241
_cell_length_c	10.268362
_cell_angle_alpha	90.005428
_cell_angle_beta	89.995325
_cell_angle_gamma	96.058866
loop_
_atom_site_label
_atom_site_type_symbol
_atom_site_fract_x
_atom_site_fract_y
_atom_site_fract_z
O1	O	1.224400	-0.148896	-0.108304
O2	O	1.724400	0.351104	0.391696
O3	O	0.955990	-0.166392	-0.108306
O4	O	1.455990	0.333608	0.391694
O5	O	1.096709	0.007562	-0.108295
O6	O	1.596709	0.507562	0.391705
O7	O	1.083682	-0.322850	-0.108314
O8	O	1.583682	0.177150	0.391686
O9	O	1.096697	0.007569	0.108305
O10	O	1.596697	0.507569	0.608305
O11	O	0.955978	-0.166385	0.108295
O12	O	1.455978	0.333615	0.608295
O13	O	1.224388	-0.148889	0.108297
O14	O	1.724388	0.351111	0.608297
Cu15	Cu	1.090182	-0.157636	0.128073
Cu16	Cu	1.590182	0.342364	0.628073
Cu17	Cu	1.090196	-0.157645	-0.128082
Cu18	Cu	1.590196	0.342355	0.371918
O19	O	1.083669	-0.322843	0.108287
O20	O	1.583669	0.177157	0.608287
C21	C	0.921622	-0.165569	-0.000005
C22	C	1.421622	0.334431	0.499995
C23	C	0.819232	-0.163112	-0.000006
C24	C	1.319232	0.336888	0.499994
C25	C	0.736081	-0.161116	-0.000011
C26	C	1.236081	0.338884	0.499989
C27	C	0.631763	-0.158622	-0.000012
C28	C	1.131763	0.341378	0.499988
C29	C	0.548617	-0.156642	-0.000011
C30	C	1.048617	0.343358	0.499989
C31	C	0.444292	-0.154149	-0.000014
C32	C	0.944292	0.345851	0.499986
C33	C	1.095884	0.049852	0.000004
C34	C	1.595884	0.549852	0.500004
C35	C	1.093435	0.175852	0.000003
C36	C	1.593435	0.675852	0.500003
C37	C	1.258757	-0.149713	-0.000006
C38	C	1.758757	0.350287	0.499994
C39	C	1.361146	-0.152169	-0.000014
C40	C	1.861146	0.347831	0.499986
C41	C	1.084494	-0.365133	-0.000016
C42	C	1.584494	0.134867	0.499984
C43	C	1.086943	-0.491133	-0.000023
C44	C	1.586943	0.008867	0.499977
N45	N	1.090178	-0.157630	0.308239
N46	N	1.590178	0.342370	0.808239
C47	C	1.088931	0.406540	-0.000019
C48	C	1.588931	0.906540	0.499981
C49	C	1.091434	0.278168	-0.000007
C50	C	1.591434	0.778168	0.499993
N51	N	1.090207	-0.157642	-0.308248
N52	N	1.590207	0.342358	0.191752
C53	C	1.090192	-0.157642	0.573910
C54	C	1.590192	0.342358	1.073910
C55	C	1.090181	-0.157639	0.426072
C56	C	1.590181	0.342361	0.926072
