data_functionalizedCrystal
_audit_creation_method	'MofGen! by Chris Wilmer'
_symmetry_space_group_name_H-M	'P1'
_symmetry_Int_Tables_number	1
_symmetry_cell_setting	triclinic
loop_
_symmetry_equiv_pos_as_xyz
  x,y,z
_cell_length_a	17.038278
_cell_length_b	17.038272
_cell_length_c	9.130313
_cell_angle_alpha	89.995195
_cell_angle_beta	89.996417
_cell_angle_gamma	91.111028
loop_
_atom_site_label
_atom_site_type_symbol
_atom_site_fract_x
_atom_site_fract_y
_atom_site_fract_z
O1	O	1.048753	0.170527	-0.121814
O2	O	1.548753	0.670527	0.378186
O3	O	0.820941	0.167821	-0.121814
O4	O	1.320941	0.667821	0.378186
O5	O	0.933493	0.055268	-0.121802
O6	O	1.433493	0.555268	0.378198
O7	O	0.936201	0.283080	-0.121825
O8	O	1.436201	0.783080	0.378175
O9	O	0.933485	0.055264	0.121797
O10	O	1.433485	0.555264	0.621797
O11	O	0.820933	0.167817	0.121785
O12	O	1.320933	0.667817	0.621785
O13	O	1.048744	0.170523	0.121785
O14	O	1.548744	0.670523	0.621785
Cu15	Cu	0.934838	0.169170	0.144028
Cu16	Cu	1.434838	0.669170	0.644028
Cu17	Cu	0.934848	0.169174	-0.144056
Cu18	Cu	1.434848	0.669174	0.355944
O19	O	0.936193	0.283076	0.121773
O20	O	1.436193	0.783076	0.621773
C21	C	0.791645	0.165356	-0.000015
C22	C	1.291645	0.665356	0.499985
C23	C	0.704361	0.158009	-0.000014
C24	C	1.204361	0.658009	0.499986
C25	C	0.210935	0.112872	-0.000015
C26	C	0.710935	0.612872	0.499985
C27	C	0.292947	0.119781	-0.000007
C28	C	0.792947	0.619781	0.499993
C29	C	0.329347	0.194155	-0.000021
C30	C	0.829347	0.694155	0.499979
C31	C	0.283730	0.261623	-0.000029
C32	C	0.783730	0.761623	0.499971
C33	C	0.201720	0.254713	-0.000027
C34	C	0.701720	0.754713	0.499973
C35	C	0.576734	0.218567	-0.000020
C36	C	1.076734	0.718567	0.499980
C37	C	0.658751	0.225473	-0.000026
C38	C	1.158751	0.725473	0.499974
C39	C	0.667962	0.083630	-0.000002
C40	C	1.167962	0.583630	0.499998
C41	C	0.585949	0.076726	-0.000008
C42	C	1.085949	0.576726	0.499992
C43	C	0.540340	0.144194	-0.000008
C44	C	1.040340	0.644194	0.499992
C45	C	0.413176	0.201219	-0.000018
C46	C	0.913176	0.701219	0.499982
C47	C	0.456513	0.137129	-0.000001
C48	C	0.956513	0.637129	0.499999
C49	C	0.931026	0.025974	-0.000003
C50	C	1.431026	0.525974	0.499997
C51	C	0.923678	-0.061310	-0.000003
C52	C	1.423678	0.438690	0.499997
C53	C	0.991142	-0.106920	-0.000002
C54	C	1.491142	0.393080	0.499998
C55	C	0.984233	-0.188932	-0.000016
C56	C	1.484233	0.311068	0.499984
C57	C	0.909859	-0.225332	-0.000021
C58	C	1.409859	0.274668	0.499979
C59	C	0.842391	-0.179716	-0.000027
C60	C	1.342391	0.320284	0.499973
C61	C	0.849300	-0.097706	-0.000023
C62	C	1.349300	0.402294	0.499977
C63	C	0.885449	-0.472720	-0.000041
C64	C	1.385449	0.027280	0.499959
C65	C	0.878544	-0.554736	-0.000040
C66	C	1.378544	-0.054736	0.499960
C67	C	1.020387	-0.563946	-0.000032
C68	C	1.520387	-0.063946	0.499968
C69	C	1.027290	-0.481934	-0.000019
C70	C	1.527290	0.018066	0.499981
C71	C	0.959821	-0.436325	-0.000033
C72	C	1.459821	0.063675	0.499967
C73	C	0.902796	-0.309161	-0.000030
C74	C	1.402796	0.190839	0.499970
C75	C	0.966886	-0.352497	-0.000034
C76	C	1.466886	0.147503	0.499966
C77	C	1.078041	0.172988	-0.000017
C78	C	1.578041	0.672988	0.499983
C79	C	1.165325	0.180335	-0.000027
C80	C	1.665325	0.680335	0.499973
C81	C	0.938660	0.312370	-0.000029
C82	C	1.438660	0.812370	0.499971
C83	C	0.946008	0.399654	-0.000038
C84	C	1.446008	0.899654	0.499962
N85	N	0.934837	0.169166	0.346650
N86	N	1.434837	0.669166	0.846650
N87	N	0.934855	0.169172	-0.346679
N88	N	1.434855	0.669172	0.153321
C89	C	0.984694	0.119351	0.423307
C90	C	1.484694	0.619351	0.923307
C91	C	0.984701	0.119352	0.576644
C92	C	1.484701	0.619352	1.076644
C93	C	0.884992	0.218989	0.576653
C94	C	1.384992	0.718989	1.076653
C95	C	0.884981	0.218984	0.423319
C96	C	1.384981	0.718984	0.923319
H97	H	0.442822	0.261775	-0.000033
H98	H	0.942822	0.761775	0.499967
C99	C	0.830164	0.273792	0.660994
C100	C	1.330164	0.773792	1.160994
H101	H	0.837316	0.266667	0.763294
H102	H	1.337316	0.766667	1.263294
H103	H	0.777183	0.261748	0.635891
H104	H	1.277183	0.761748	1.135891
H105	H	0.842181	0.326778	0.635841
H106	H	1.342181	0.826778	1.135841
H107	H	0.164585	0.309649	-0.000031
H108	H	0.664585	0.809649	0.499969
C109	C	0.830138	0.273785	0.338991
C110	C	1.330138	0.773785	0.838991
H111	H	0.800456	0.303464	0.406610
H112	H	1.300456	0.803464	0.906610
H113	H	0.795568	0.243338	0.279194
H114	H	1.295568	0.743338	0.779194
H115	H	0.860562	0.308372	0.279157
H116	H	1.360562	0.808372	0.779157
H117	H	0.330080	0.064845	0.000008
H118	H	0.830080	0.564845	0.500008
C119	C	1.072953	-0.066886	0.000004
C120	C	1.572953	0.433114	0.500004
H121	H	1.112141	-0.105799	-0.000011
H122	H	1.612141	0.394201	0.499989
H123	H	1.078596	-0.035090	0.084952
H124	H	1.578596	0.464910	0.584952
H125	H	1.078599	-0.035082	-0.084955
H126	H	1.578599	0.464918	0.415045
H127	H	0.539609	0.273505	-0.000027
H128	H	1.039609	0.773505	0.499973
H129	H	0.313374	0.322180	-0.000031
H130	H	0.813374	0.822180	0.499969
H131	H	0.830511	-0.435595	-0.000052
H132	H	1.330511	0.064405	0.499948
H133	H	0.181305	0.052309	-0.000013
H134	H	0.681305	0.552309	0.499987
C135	C	0.545915	-0.005085	0.000025
C136	C	1.045915	0.494915	0.500025
H137	H	0.584826	-0.044275	0.000048
H138	H	1.084826	0.455725	0.500048
H139	H	0.514115	-0.010733	-0.084918
H140	H	1.014115	0.489267	0.415082
H141	H	0.514115	-0.010722	0.084989
H142	H	1.014115	0.489278	0.584989
H143	H	1.025288	0.078786	0.360887
H144	H	1.525288	0.578786	0.860887
H145	H	0.705105	0.028701	-0.000000
H146	H	1.205105	0.528701	0.500000
H147	H	0.426872	0.076575	-0.000006
H148	H	0.926872	0.576575	0.499994
H149	H	0.688384	0.286039	-0.000017
H150	H	1.188384	0.786039	0.499983
C151	C	0.820988	-0.349201	-0.000036
C152	C	1.320988	0.150799	0.499964
H153	H	0.781793	-0.310295	-0.000044
H154	H	1.281793	0.189705	0.499956
H155	H	0.815342	-0.381012	0.084904
H156	H	1.315342	0.118988	0.584904
H157	H	0.815354	-0.380992	-0.085003
H158	H	1.315354	0.119008	0.414997
C159	C	0.775091	-0.047535	-0.000021
C160	C	1.275091	0.452465	0.499979
H161	H	0.729807	-0.080958	-0.000012
H162	H	1.229807	0.419042	0.499988
H163	H	0.774842	-0.015347	-0.084969
H164	H	1.274842	0.484653	0.415031
H165	H	0.774834	-0.015356	0.084938
H166	H	1.274834	0.484644	0.584938
H167	H	1.087852	-0.452303	-0.000015
H168	H	1.587852	0.047697	0.499985
C169	C	1.039548	0.064559	0.660961
C170	C	1.539548	0.564559	1.160961
H171	H	1.069240	0.034895	0.593334
H172	H	1.569240	0.534895	1.093334
H173	H	1.009133	0.029970	0.720796
H174	H	1.509133	0.529970	1.220796
H175	H	1.074120	0.095012	0.720755
H176	H	1.574120	0.595012	1.220755
C177	C	1.058443	-0.239099	0.000001
C178	C	1.558443	0.260901	0.500001
H179	H	1.103726	-0.205675	0.000026
H180	H	1.603726	0.294325	0.500026
H181	H	1.058707	-0.271279	-0.084947
H182	H	1.558707	0.228721	0.415053
H183	H	1.058686	-0.271286	0.084961
H184	H	1.558686	0.228714	0.584961
H185	H	0.817978	-0.584370	-0.000020
H186	H	1.317978	-0.084370	0.499980
C187	C	1.094598	-0.614113	-0.000032
C188	C	1.594598	-0.114113	0.499968
H189	H	1.139880	-0.580688	-0.000020
H190	H	1.639880	-0.080688	0.499980
H191	H	1.094854	-0.646292	-0.084981
H192	H	1.594854	-0.146292	0.415019
H193	H	1.094849	-0.646300	0.084926
H194	H	1.594849	-0.146300	0.584926
C195	C	0.760580	-0.219751	-0.000044
C196	C	1.260580	0.280249	0.499956
H197	H	0.721391	-0.180839	-0.000060
H198	H	1.221391	0.319161	0.499940
H199	H	0.754928	-0.251558	0.084900
H200	H	1.254928	0.248442	0.584900
H201	H	0.754945	-0.251544	-0.085007
H202	H	1.254945	0.248456	0.414993
H203	H	1.027440	-0.322857	-0.000062
H204	H	1.527440	0.177143	0.499938
