data_functionalizedCrystal
_audit_creation_method	'MofGen! by Chris Wilmer'
_symmetry_space_group_name_H-M	'P1'
_symmetry_Int_Tables_number	1
_symmetry_cell_setting	triclinic
loop_
_symmetry_equiv_pos_as_xyz
  x,y,z
_cell_length_a	12.827893
_cell_length_b	13.897448
_cell_length_c	12.827893
_cell_angle_alpha	90.009754
_cell_angle_beta	90.003786
_cell_angle_gamma	90.017853
loop_
_atom_site_label
_atom_site_type_symbol
_atom_site_fract_x
_atom_site_fract_y
_atom_site_fract_z
Zn1	Zn	1.597493	-0.384178	0.590830
Zn2	Zn	1.597427	-0.545441	0.416083
Zn3	Zn	1.422782	-0.384163	0.416104
Zn4	Zn	1.422713	-0.545434	0.590783
O5	O	1.510104	-0.464804	0.503450
O6	O	1.743720	-0.405580	0.567661
O7	O	1.574262	-0.524044	0.269850
O8	O	1.446014	-0.249183	0.439310
O9	O	1.743672	-0.524060	0.439275
O10	O	1.574374	-0.249195	0.567681
O11	O	1.445950	-0.405553	0.269865
O12	O	1.276537	-0.405546	0.439264
O13	O	1.445896	-0.524046	0.737025
O14	O	1.276486	-0.524031	0.567600
O15	O	1.574307	-0.405573	0.737060
O16	O	1.574195	-0.680422	0.439229
O17	O	1.445833	-0.680416	0.567580
C18	C	1.238594	-0.464786	0.503430
C19	C	1.122441	-0.464802	0.503446
C20	C	1.070680	-0.406279	0.567075
C21	C	0.950629	-0.406293	0.567093
C22	C	1.510028	-0.715418	0.503420
C23	C	1.510091	-0.822632	0.503442
C24	C	1.510200	-1.018927	0.503507
C25	C	1.510136	-0.909695	0.503474
C26	C	1.782674	-0.464823	0.503471
C27	C	1.898827	-0.464830	0.503479
C28	C	1.510101	-0.464810	0.776020
C29	C	1.510100	-0.464813	0.892173
C30	C	1.510209	-0.213211	0.503503
C31	C	1.510254	-0.105997	0.503526
C32	C	1.573635	-0.406196	0.943975
C33	C	1.573635	-0.406197	1.064025
C34	C	1.510099	-0.464819	1.231940
C35	C	1.510100	-0.464817	1.115787
H36	H	0.906116	-0.356193	0.621571
O37	O	1.123783	-0.346352	0.631943
C38	C	1.157372	-0.182378	0.683002
C39	C	1.097193	-0.250134	0.609452
H40	H	1.135880	-0.104573	0.664859
H41	H	1.244736	-0.192933	0.671411
H42	H	1.135998	-0.199480	0.767247
H43	H	1.118479	-0.233074	0.525179
H44	H	1.009844	-0.239567	0.621134
H45	H	1.077879	-0.514915	0.448983
O46	O	1.445174	-0.524789	1.062818
C47	C	1.312503	-0.647134	1.074065
C48	C	1.385990	-0.579278	1.134191
H49	H	1.264618	-0.691192	1.131744
H50	H	1.360464	-0.697595	1.022992
H51	H	1.257969	-0.602794	1.022935
H52	H	1.440539	-0.623541	1.185378
H53	H	1.337964	-0.528815	1.185198
H54	H	0.943334	-0.514942	0.449008
H55	H	1.455700	-0.514992	0.936700
O56	O	1.638500	-0.346416	0.890703
C57	C	1.697571	-0.291843	0.722480
C58	C	1.624071	-0.359608	0.782676
H59	H	1.685915	-0.302471	0.635130
H60	H	1.781868	-0.308777	0.743804
H61	H	1.679289	-0.214054	0.743954
H62	H	1.642258	-0.437420	0.761235
H63	H	1.539795	-0.342592	0.761348
H64	H	1.628032	-0.356016	1.108574
