data_functionalizedCrystal
_audit_creation_method	'MofGen! by Chris Wilmer'
_symmetry_space_group_name_H-M	'P1'
_symmetry_Int_Tables_number	1
_symmetry_cell_setting	triclinic
loop_
_symmetry_equiv_pos_as_xyz
  x,y,z
_cell_length_a	6.817900
_cell_length_b	12.200863
_cell_length_c	17.110486
_cell_angle_alpha	95.510113
_cell_angle_beta	99.060439
_cell_angle_gamma	107.143441
loop_
_atom_site_label
_atom_site_type_symbol
_atom_site_fract_x
_atom_site_fract_y
_atom_site_fract_z
V1	V	-3.995375	-0.158371	-0.246800
O2	O	-3.964445	0.007962	-0.242020
O3	O	-3.965419	-0.314361	-0.245192
O4	O	-3.924930	-0.155780	-0.354402
O5	O	-4.005214	-0.151716	-0.132053
V6	V	-4.479469	-0.138494	-0.233066
O7	O	-4.255380	-0.201973	-0.276928
O8	O	-4.669661	-0.094892	-0.202939
O9	O	-4.286218	0.017496	-0.234674
O10	O	-4.627796	-0.304826	-0.237847
O11	O	-4.587027	-0.145148	-0.347813
O12	O	-4.326707	-0.141084	-0.125464
C13	C	-3.815620	-0.352392	-0.241319
C14	C	-3.872268	-0.479915	-0.240721
C15	C	-3.975943	-0.713393	-0.239633
C16	C	-3.918243	-0.583469	-0.240239
C17	C	-3.763972	-0.150106	-0.380627
C18	C	-3.787781	-0.149020	-0.468592
C19	C	-3.980931	-0.154236	-0.513953
C20	C	-4.003290	-0.153215	-0.596605
C21	C	-3.832502	-0.146987	-0.633897
C22	C	-3.639335	-0.141768	-0.588530
C23	C	-3.616974	-0.142781	-0.505878
C24	C	-3.890910	-0.143636	-0.883250
C25	C	-3.913288	-0.142627	-0.965909
C26	C	-4.277242	-0.154071	-0.973978
C27	C	-4.254867	-0.155090	-0.891325
C28	C	-4.061700	-0.149865	-0.845965
C29	C	-3.855354	-0.145947	-0.718382
C30	C	-4.038847	-0.150897	-0.761481
C31	C	-4.099360	0.055522	-0.238545
C32	C	-4.021950	0.183044	-0.239148
C33	C	-4.151009	-0.146762	-0.099236
C34	C	-4.106437	-0.147842	-0.011269
H35	H	-4.120014	-0.159314	-0.483597
H36	H	-4.160567	-0.157455	-0.633534
H37	H	-3.459679	-0.138506	-0.468943
H38	H	-4.393945	-0.160161	-0.860968
H39	H	-3.716303	-0.140881	-0.748754
H40	H	-4.434510	-0.158324	-1.010919
H41	H	-3.774199	-0.137552	-0.996268
H42	H	-3.733645	-0.139422	-0.846332
H43	H	-3.500274	-0.136690	-0.618899
H44	H	-4.177898	-0.155964	-0.731114
