data_functionalizedCrystal
_audit_creation_method	'MofGen! by Chris Wilmer'
_symmetry_space_group_name_H-M	'P1'
_symmetry_Int_Tables_number	1
_symmetry_cell_setting	triclinic
loop_
_symmetry_equiv_pos_as_xyz
  x,y,z
_cell_length_a	15.944551
_cell_length_b	11.792241
_cell_length_c	10.868271
_cell_angle_alpha	90.005281
_cell_angle_beta	89.999827
_cell_angle_gamma	83.846077
loop_
_atom_site_label
_atom_site_type_symbol
_atom_site_fract_x
_atom_site_fract_y
_atom_site_fract_z
O1	O	-1.115184	-0.146380	-0.102194
O2	O	-0.870716	-0.164428	-0.102225
O3	O	-0.998883	0.009815	-0.102200
O4	O	-0.987018	-0.320623	-0.102219
O5	O	-0.998872	0.009822	0.102444
O6	O	-0.870706	-0.164421	0.102420
O7	O	-1.115174	-0.146374	0.102450
Zn8	Zn	-0.992938	-0.155396	0.134927
Zn9	Zn	-0.992952	-0.155405	-0.134701
O10	O	-0.987007	-0.320617	0.102426
C11	C	-0.839414	-0.163675	0.000093
C12	C	-0.746157	-0.161429	0.000082
C13	C	-0.998132	0.052104	0.000122
C14	C	-0.995901	0.178099	0.000120
C15	C	-1.146476	-0.147126	0.000129
C16	C	-1.239733	-0.149372	0.000133
C17	C	-0.530789	-0.048056	0.000112
C18	C	-0.470012	-0.100706	-0.100791
C19	C	-0.575413	-0.157365	0.000097
C20	C	-0.470024	-0.100725	0.100972
C21	C	-0.410483	-0.153432	0.000116
C22	C	-0.515864	-0.210045	-0.100890
C23	C	-0.515882	-0.210049	0.100964
C24	C	-0.455123	-0.262778	0.000036
C25	C	-0.670426	-0.159628	0.000084
C26	C	-0.315471	-0.151178	0.000120
C27	C	-0.987758	-0.362905	0.000101
C28	C	-0.989989	-0.488900	0.000094
N29	N	-0.992935	-0.155389	0.318941
C30	C	-0.991799	0.408777	0.000099
C31	C	-0.994079	0.280411	0.000110
N32	N	-0.992962	-0.155403	-0.318716
C33	C	-0.992948	-0.155403	0.569947
C34	C	-0.992938	-0.155399	0.430269
H35	H	-0.563713	0.042662	-0.000007
O36	O	-0.540037	-0.265309	0.202694
C37	C	-0.527495	-0.440345	0.318866
C38	C	-0.500051	-0.377905	0.203611
H39	H	-0.495192	-0.531398	0.319633
H40	H	-0.508839	-0.393703	0.404871
H41	H	-0.598829	-0.442177	0.317377
H42	H	-0.428720	-0.376057	0.204981
H43	H	-0.518770	-0.424569	0.117657
O44	O	-0.415950	-0.371058	-0.000195
C45	C	-0.320375	-0.510489	-0.105843
C46	C	-0.364669	-0.387829	-0.105711
H47	H	-0.278917	-0.524095	-0.191156
H48	H	-0.279647	-0.524700	-0.019863
H49	H	-0.369824	-0.573511	-0.106642
H50	H	-0.315278	-0.324730	-0.104955
H51	H	-0.405413	-0.373715	-0.191684
H52	H	-0.449724	-0.054469	0.186275
H53	H	-0.449697	-0.054475	-0.186093
H54	H	-0.536065	-0.256247	-0.186289
