data_functionalizedCrystal
_audit_creation_method	'MofGen! by Chris Wilmer'
_symmetry_space_group_name_H-M	'P1'
_symmetry_Int_Tables_number	1
_symmetry_cell_setting	triclinic
loop_
_symmetry_equiv_pos_as_xyz
  x,y,z
_cell_length_a	18.101398
_cell_length_b	18.101395
_cell_length_c	18.101389
_cell_angle_alpha	89.983159
_cell_angle_beta	90.024327
_cell_angle_gamma	89.973629
loop_
_atom_site_label
_atom_site_type_symbol
_atom_site_fract_x
_atom_site_fract_y
_atom_site_fract_z
Zn1	Zn	1.132121	0.295001	0.418847
Zn2	Zn	1.465454	0.628334	0.752180
Zn3	Zn	1.798788	0.961667	1.085514
Zn4	Zn	1.132017	0.418826	0.295009
Zn5	Zn	1.465350	0.752160	0.628342
Zn6	Zn	1.798684	1.085493	0.961675
Zn7	Zn	1.008280	0.294993	0.295008
Zn8	Zn	1.341613	0.628326	0.628341
Zn9	Zn	1.674947	0.961660	0.961675
Zn10	Zn	1.008231	0.418795	0.418797
Zn11	Zn	1.341564	0.752128	0.752131
Zn12	Zn	1.674897	1.085461	1.085464
O13	O	1.070162	0.356904	0.356915
O14	O	1.403495	0.690237	0.690249
O15	O	1.736829	1.023570	1.023582
O16	O	1.235740	0.311443	0.402440
O17	O	1.569073	0.644776	0.735774
O18	O	1.902407	0.978110	1.069107
O19	O	1.115580	0.402410	0.191376
O20	O	1.448913	0.735743	0.524709
O21	O	1.782247	1.069076	0.858042
O22	O	1.024772	0.191361	0.311456
O23	O	1.358105	0.524695	0.644789
O24	O	1.691439	0.858028	0.978123
O25	O	1.235664	0.402417	0.311457
O26	O	1.568997	0.735751	0.644790
O27	O	1.902330	1.069084	0.978124
O28	O	1.115757	0.191367	0.402440
O29	O	1.449091	0.524700	0.735773
O30	O	1.782424	0.858034	1.069106
O31	O	1.024671	0.311430	0.191375
O32	O	1.358004	0.644763	0.524708
O33	O	1.691338	0.978097	0.858042
O34	O	0.904641	0.311399	0.311408
O35	O	1.237974	0.644732	0.644741
O36	O	1.571307	0.978066	0.978075
O37	O	1.024688	0.402363	0.522437
O38	O	1.358021	0.735697	0.855770
O39	O	1.691355	1.069030	1.189103
O40	O	0.904604	0.402356	0.402355
O41	O	1.237938	0.735689	0.735689
O42	O	1.571271	1.069022	1.069022
O43	O	1.115710	0.311412	0.522473
O44	O	1.449043	0.644746	0.855807
O45	O	1.782376	0.978079	1.189140
O46	O	1.115532	0.522455	0.311409
O47	O	1.448866	0.855788	0.644742
O48	O	1.782199	1.189122	0.978076
O49	O	1.024587	0.522432	0.402356
O50	O	1.357920	0.855765	0.735689
O51	O	1.691254	1.189099	1.069023
C52	C	0.877752	0.356874	0.356877
C53	C	1.211085	0.690207	0.690210
C54	C	1.544418	1.023540	1.023543
C55	C	0.795437	0.356879	0.356878
C56	C	1.128771	0.690212	0.690211
C57	C	1.462104	1.023545	1.023544
C58	C	1.070063	0.549314	0.356893
C59	C	1.403396	0.882648	0.690227
C60	C	1.736730	1.215981	1.023560
C61	C	1.070088	0.631628	0.356909
C62	C	1.403422	0.964962	0.690242
C63	C	1.736755	1.298295	1.023576
C64	C	0.496347	0.356925	0.356940
C65	C	0.829680	0.690258	0.690273
C66	C	1.163013	1.023592	1.023606
C67	C	0.527670	0.299412	0.299997
C68	C	0.861003	0.632745	0.633331
C69	C	1.194336	0.966078	0.966664
C70	C	0.613288	0.299566	0.299754
C71	C	0.946621	0.632899	0.633088
C72	C	1.279955	0.966232	0.966421
C73	C	0.644729	0.356901	0.356909
C74	C	0.978062	0.690235	0.690242
C75	C	1.311396	1.023568	1.023576
C76	C	0.613611	0.434909	0.335587
C77	C	0.946944	0.768243	0.668920
C78	C	1.280278	1.101576	1.002253
C79	C	0.527966	0.434590	0.335191
C80	C	0.861299	0.767923	0.668524
C81	C	1.194632	1.101256	1.001857
C82	C	0.527961	0.337109	0.435339
C83	C	0.861294	0.670442	0.768672
C84	C	1.194628	1.003775	1.102005
C85	C	0.613612	0.335371	0.434911
C86	C	0.946945	0.668705	0.768244
C87	C	1.280279	1.002038	1.101577
C88	C	0.728589	0.356893	0.356893
C89	C	1.061922	0.690226	0.690226
C90	C	1.395255	1.023559	1.023559
C91	C	0.412487	0.356939	0.356954
C92	C	0.745820	0.690272	0.690288
C93	C	1.079154	1.023605	1.023621
C94	C	1.070205	0.356885	0.550077
C95	C	1.403538	0.690218	0.883411
C96	C	1.736872	1.023552	1.216744
C97	C	1.070223	0.356877	0.632391
C98	C	1.403556	0.690210	0.965725
C99	C	1.736890	1.023544	1.299058
C100	C	1.263324	0.356934	0.356954
C101	C	1.596657	0.690268	0.690288
C102	C	1.929991	1.023601	1.023621
C103	C	1.345638	0.356948	0.356971
C104	C	1.678971	0.690281	0.690304
C105	C	2.012305	1.023614	1.023638
C106	C	1.070282	0.163742	0.356953
C107	C	1.403615	0.497075	0.690287
C108	C	1.736948	0.830409	1.023620
C109	C	1.070333	0.081428	0.356970
C110	C	1.403666	0.414761	0.690303
C111	C	1.736999	0.748094	1.023636
C112	C	1.070251	0.930719	0.356949
C113	C	1.403584	1.264053	0.690282
C114	C	1.736918	1.597386	1.023615
C115	C	1.013163	0.899410	0.414312
C116	C	1.346497	1.232744	0.747646
C117	C	1.679830	1.566077	1.080979
C118	C	1.012892	0.813792	0.414133
C119	C	1.346225	1.147126	0.747466
C120	C	1.679559	1.480459	1.080799
C121	C	1.070170	0.782337	0.356930
C122	C	1.403504	1.115670	0.690263
C123	C	1.736837	1.449003	1.023596
C124	C	1.049041	0.813472	0.278878
C125	C	1.382374	1.146806	0.612211
C126	C	1.715708	1.480139	0.945545
C127	C	1.048673	0.899117	0.279221
C128	C	1.382006	1.232451	0.612555
C129	C	1.715340	1.565784	0.945888
C130	C	1.148593	0.899073	0.376950
C131	C	1.481926	1.232407	0.710283
C132	C	1.815259	1.565740	1.043617
C133	C	1.148132	0.813422	0.378661
C134	C	1.481465	1.146756	0.711995
C135	C	1.814799	1.480089	1.045328
C136	C	1.070126	0.698477	0.356914
C137	C	1.403459	1.031811	0.690247
C138	C	1.736793	1.365144	1.023581
C139	C	1.070293	1.014579	0.356959
C140	C	1.403627	1.347912	0.690293
C141	C	1.736960	1.681245	1.023626
C142	C	1.070162	0.356869	0.164505
C143	C	1.403495	0.690202	0.497838
C144	C	1.736829	1.023536	0.831171
C145	C	1.070287	0.356668	0.082191
C146	C	1.403621	0.690002	0.415524
C147	C	1.736954	1.023335	0.748858
C148	C	1.070266	0.356738	0.931482
C149	C	1.403600	0.690072	1.264816
C150	C	1.736933	1.023405	1.598149
C151	C	1.012801	0.413780	0.900134
C152	C	1.346134	0.747113	1.233468
C153	C	1.679467	1.080447	1.566801
C154	C	1.012956	0.414045	0.814516
C155	C	1.346289	0.747378	1.147849
C156	C	1.679623	1.080711	1.481183
C157	C	1.070244	0.356807	0.783100
C158	C	1.403578	0.690140	1.116433
C159	C	1.736911	1.023474	1.449767
C160	C	1.148270	0.377998	0.814206
C161	C	1.481603	0.711331	1.147539
C162	C	1.814936	1.044664	1.480873
C163	C	1.147949	0.378372	0.899851
C164	C	1.481283	0.711705	1.233184
C165	C	1.814616	1.045039	1.566518
C166	C	1.050385	0.278379	0.899905
C167	C	1.383718	0.611712	1.233238
C168	C	1.717052	0.945046	1.566571
C169	C	1.048649	0.278832	0.814254
C170	C	1.381982	0.612165	1.147587
C171	C	1.715315	0.945498	1.480920
C172	C	1.070237	0.356845	0.699240
C173	C	1.403570	0.690178	1.032574
C174	C	1.736903	1.023511	1.365907
C175	C	1.070279	0.356702	1.015342
C176	C	1.403613	0.690036	1.348675
C177	C	1.736946	1.023369	1.682009
H178	H	0.634329	0.241719	0.313119
H179	H	0.967662	0.575052	0.646453
H180	H	1.300995	0.908386	0.979786
F181	F	0.641586	0.386138	0.493338
F182	F	0.974919	0.719471	0.826672
F183	F	1.308252	1.052804	1.160005
H184	H	0.991229	0.262852	0.793921
H185	H	1.324562	0.596185	1.127255
H186	H	1.657896	0.929518	1.460588
H187	H	0.507705	0.378999	0.477766
H188	H	0.841038	0.712333	0.811100
H189	H	1.174371	1.045666	1.144433
F190	F	0.499491	0.316327	0.224509
F191	F	0.832824	0.649660	0.557842
F192	F	1.166158	0.982994	0.891176
F193	F	1.101678	0.786843	0.221488
F194	F	1.435011	1.120176	0.554821
F195	F	1.768345	1.453509	0.888154
H196	H	0.507954	0.451397	0.277877
H197	H	0.841287	0.784730	0.611211
H198	H	1.174621	1.118063	0.944544
F199	F	0.499768	0.264052	0.460678
F200	F	0.833101	0.597385	0.794011
F201	F	1.166434	0.930718	1.127345
F202	F	1.206670	0.785426	0.328037
F203	F	1.540003	1.118759	0.661371
F204	F	1.873337	1.452093	0.994704
F205	F	0.500878	0.492498	0.387032
F206	F	0.834212	0.825831	0.720366
F207	F	1.167545	1.159164	1.053699
F208	F	0.640212	0.260344	0.455933
F209	F	0.973546	0.593677	0.789267
F210	F	1.306879	0.927010	1.122600
H211	H	1.026111	0.792740	0.472007
H212	H	1.359445	1.126073	0.805340
H213	H	1.692778	1.459407	1.138674
F214	F	0.500784	0.223569	0.317272
F215	F	0.834117	0.556902	0.650605
F216	F	1.167451	0.890235	0.983939
H217	H	1.026252	0.919970	0.472374
H218	H	1.359585	1.253303	0.805707
H219	H	1.692918	1.586636	1.139040
F220	F	1.105092	0.222829	0.926404
F221	F	1.438426	0.556163	1.259737
F222	F	1.771759	0.889496	1.593071
F223	F	0.640026	0.316684	0.223822
F224	F	0.973359	0.650017	0.557155
F225	F	1.306692	0.983351	0.890489
H226	H	0.991406	0.919153	0.262279
H227	H	1.324739	1.252486	0.595613
H228	H	1.658072	1.585819	0.928946
H229	H	1.192236	0.337757	0.793859
H230	H	1.525569	0.671090	1.127192
H231	H	1.858902	1.004423	1.460526
H232	H	1.191125	0.919319	0.335170
H233	H	1.524458	1.252652	0.668503
H234	H	1.857792	1.585986	1.001837
H235	H	0.954768	0.400655	0.920720
H236	H	1.288101	0.733988	1.254053
H237	H	1.621434	1.067321	1.587386
F238	F	0.937726	0.927629	0.397225
F239	F	1.271060	1.260962	0.730559
F240	F	1.604393	1.594295	1.063892
H241	H	0.954823	0.793362	0.400884
H242	H	1.288157	1.126695	0.734217
H243	H	1.621490	1.460029	1.067550
H244	H	0.633975	0.478909	0.375763
H245	H	0.967309	0.812242	0.709096
H246	H	1.300642	1.145575	1.042430
F247	F	1.170683	0.452073	0.786183
F248	F	1.504016	0.785407	1.119517
F249	F	1.837349	1.118740	1.452850
F250	F	1.205779	0.326393	0.926961
F251	F	1.539112	0.659726	1.260295
F252	F	1.872445	0.993059	1.593628
F253	F	1.099370	0.220332	0.786310
F254	F	1.432704	0.553665	1.119644
F255	F	1.766037	0.886998	1.452977
H256	H	1.088449	0.919830	0.235023
H257	H	1.421783	1.253163	0.568357
H258	H	1.755116	1.586497	0.901690
F259	F	1.029751	0.489227	0.928315
F260	F	1.363085	0.822560	1.261648
F261	F	1.696418	1.155893	1.594981
H262	H	1.167856	0.920633	0.432895
H263	H	1.501190	1.253966	0.766229
H264	H	1.834523	1.587300	1.099562
H265	H	0.992380	0.792080	0.261633
H266	H	1.325714	1.125413	0.594966
H267	H	1.659047	1.458746	0.928299
H268	H	1.164065	0.793071	0.436103
H269	H	1.497399	1.126404	0.769436
H270	H	1.830732	1.459738	1.102770
H271	H	0.955097	0.400784	0.793483
H272	H	1.288430	0.734117	1.126816
H273	H	1.621764	1.067450	1.460150
F274	F	1.030147	0.489955	0.787743
F275	F	1.363480	0.823288	1.121076
F276	F	1.696814	1.156621	1.454409
F277	F	1.169978	0.453243	0.925975
F278	F	1.503311	0.786576	1.259308
F279	F	1.836645	1.119910	1.592642
H280	H	0.994478	0.259074	0.921490
H281	H	1.327811	0.592407	1.254823
H282	H	1.661144	0.925741	1.588157
H283	H	0.635026	0.452008	0.278892
H284	H	0.968359	0.785341	0.612226
H285	H	1.301692	1.118675	0.945559
