data_functionalizedCrystal
_audit_creation_method	'MofGen! by Chris Wilmer'
_symmetry_space_group_name_H-M	'P1'
_symmetry_Int_Tables_number	1
_symmetry_cell_setting	triclinic
loop_
_symmetry_equiv_pos_as_xyz
  x,y,z
_cell_length_a	27.732064
_cell_length_b	27.732048
_cell_length_c	13.930277
_cell_angle_alpha	90.000326
_cell_angle_beta	89.998889
_cell_angle_gamma	82.646040
loop_
_atom_site_label
_atom_site_type_symbol
_atom_site_fract_x
_atom_site_fract_y
_atom_site_fract_z
O1	O	0.640924	0.057548	0.079670
O2	O	0.500132	0.066285	0.079711
O3	O	0.574901	-0.008480	0.079671
O4	O	0.566155	0.132313	0.079710
O5	O	0.574890	-0.008468	-0.079991
O6	O	0.500121	0.066297	-0.079951
O7	O	0.640913	0.057560	-0.079992
Zn8	Zn	0.570515	0.061930	-0.105321
Zn9	Zn	0.570530	0.061915	0.105040
O10	O	0.566144	0.132325	-0.079952
C11	C	0.482120	0.066106	-0.000115
C12	C	0.428465	0.065551	-0.000100
C13	C	0.051392	0.017583	-0.000168
C14	C	0.253053	0.019630	-0.000143
O15	O	0.284305	-0.017591	-0.000189
N16	N	0.272180	0.063964	-0.000126
C17	C	0.240889	0.107790	-0.000122
O18	O	0.261785	0.145546	-0.000118
C19	C	0.039230	0.105743	-0.000155
C20	C	0.020105	0.061406	-0.000162
C21	C	0.032267	-0.026750	-0.000176
C22	C	-0.018145	-0.027261	-0.000177
C23	C	-0.049432	0.016561	-0.000171
C24	C	-0.030307	0.060895	-0.000163
C25	C	0.007940	0.149568	-0.000158
C26	C	-0.042478	0.149053	-0.000168
C27	C	-0.061602	0.104716	-0.000175
C28	C	-0.112006	0.104206	-0.000157
N29	N	-0.131134	0.059872	-0.000174
C30	C	-0.099846	0.016049	-0.000180
C31	C	0.346763	0.108861	-0.000103
C32	C	0.397178	0.109373	-0.000094
C33	C	0.409338	0.021213	-0.000116
C34	C	0.358923	0.020701	-0.000119
C35	C	0.327636	0.064527	-0.000120
C36	C	-0.205716	0.014979	-0.000182
C37	C	-0.256133	0.014472	-0.000179
C38	C	-0.268289	0.102632	-0.000162
C39	C	-0.217876	0.103140	-0.000160
C40	C	-0.186590	0.059309	-0.000173
O41	O	-0.143287	0.141407	-0.000122
O42	O	-0.120752	-0.021701	-0.000207
C43	C	0.101805	0.018094	-0.000167
C44	C	0.120930	0.062428	-0.000159
C45	C	0.089642	0.106250	-0.000153
C46	C	0.171344	0.062940	-0.000149
C47	C	0.202631	0.019117	-0.000156
C48	C	0.183504	-0.025217	-0.000173
C49	C	0.133092	-0.025728	-0.000174
C50	C	0.108770	0.150585	-0.000136
C51	C	0.159183	0.151092	-0.000134
C52	C	0.190470	0.107270	-0.000140
C53	C	0.574712	-0.026481	-0.000163
C54	C	0.574159	-0.080136	-0.000171
C55	C	0.614862	-0.418948	-0.000133
C56	C	0.612811	-0.620608	-0.000119
O57	O	0.650032	-0.651862	-0.000088
N58	N	0.568476	-0.639735	-0.000107
C59	C	0.524651	-0.608442	-0.000092
O60	O	0.486895	-0.629338	-0.000072
C61	C	0.526703	-0.406784	-0.000099
C62	C	0.571040	-0.387660	-0.000121
C63	C	0.659196	-0.399824	-0.000154
C64	C	0.659709	-0.349412	-0.000162
C65	C	0.615887	-0.318124	-0.000151
C66	C	0.571553	-0.337248	-0.000130
C67	C	0.482878	-0.375493	-0.000078
C68	C	0.483395	-0.325075	-0.000077
C69	C	0.527733	-0.305952	-0.000099
C70	C	0.528243	-0.255548	-0.000127
N71	N	0.572578	-0.236422	-0.000139
C72	C	0.616400	-0.267710	-0.000151
C73	C	0.523577	-0.714317	-0.000090
C74	C	0.523064	-0.764731	-0.000090
C75	C	0.611225	-0.776893	-0.000115
C76	C	0.611737	-0.726478	-0.000122
C77	C	0.567912	-0.695190	-0.000102
C78	C	0.617472	-0.161841	-0.000170
C79	C	0.617981	-0.111424	-0.000182
C80	C	0.529821	-0.099266	-0.000152
C81	C	0.529312	-0.149679	-0.000145
C82	C	0.573142	-0.180965	-0.000150
O83	O	0.491043	-0.224267	-0.000147
O84	O	0.654151	-0.246805	-0.000150
C85	C	0.614350	-0.469360	-0.000124
C86	C	0.570016	-0.488484	-0.000104
C87	C	0.526194	-0.457196	-0.000092
C88	C	0.569503	-0.538899	-0.000104
C89	C	0.613325	-0.570187	-0.000116
C90	C	0.657660	-0.551060	-0.000128
C91	C	0.658172	-0.500648	-0.000136
C92	C	0.481859	-0.476323	-0.000080
C93	C	0.481351	-0.526735	-0.000072
C94	C	0.525172	-0.558023	-0.000084
C95	C	0.658925	0.057739	-0.000164
C96	C	0.712580	0.058295	-0.000172
C97	C	0.566333	0.150326	-0.000116
C98	C	0.566886	0.203981	-0.000102
N99	N	0.570509	0.061940	-0.248887
C100	C	0.599633	0.091024	-0.701147
C101	C	0.541442	0.032786	-0.701136
C102	C	0.541434	0.032794	-0.600640
C103	C	0.570527	0.061917	-0.550393
C104	C	0.599627	0.091032	-0.600642
C105	C	0.512338	0.003676	-0.550384
C106	C	0.512330	0.003682	-0.449882
C107	C	0.541421	0.032808	-0.399633
C108	C	0.570522	0.061925	-0.449888
C109	C	0.599615	0.091047	-0.399641
C110	C	0.628713	0.120167	-0.449894
C111	C	0.628718	0.120157	-0.550393
C112	C	0.541416	0.032817	-0.299134
C113	C	0.599609	0.091055	-0.299136
N114	N	0.570540	0.061901	0.248606
H115	H	0.023502	0.185672	-0.000148
H116	H	0.652403	0.143876	-0.408970
C117	C	0.312354	0.157073	-0.000094
H118	H	0.330971	0.183546	-0.000072
H119	H	0.292435	0.158715	-0.055772
H120	H	0.292434	0.158703	0.055590
C121	C	0.509432	0.000762	-0.756400
H122	H	0.492100	-0.016575	-0.712078
H123	H	0.487045	0.020728	-0.795608
H124	H	0.529405	-0.021629	-0.795601
H125	H	-0.067950	0.184742	-0.000174
H126	H	0.694276	-0.485083	-0.000154
H127	H	0.494142	-0.073782	-0.000146
H128	H	0.446173	-0.450852	-0.000068
H129	H	0.623298	0.114773	-0.258232
H130	H	0.174748	0.187200	-0.000121
C131	C	0.660728	0.152179	-0.605673
H132	H	0.656569	0.147998	-0.672722
H133	H	0.651501	0.185318	-0.589220
H134	H	0.693868	0.142967	-0.589191
H135	H	0.447706	-0.299603	-0.000059
H136	H	0.623323	0.114734	-0.742068
H137	H	0.693341	-0.576544	-0.000141
H138	H	-0.271701	-0.021634	-0.000182
H139	H	0.083300	0.186271	-0.000132
C140	C	0.432576	-0.547765	-0.000045
H141	H	0.406553	-0.521906	-0.000029
H142	H	0.430532	-0.567183	-0.055714
H143	H	0.430549	-0.567173	0.055648
C144	C	0.660508	-0.705446	-0.000137
H145	H	0.686531	-0.731305	-0.000139
H146	H	0.662540	-0.686031	-0.055813
H147	H	0.662546	-0.686036	0.055550
H148	H	0.653163	-0.187309	-0.000170
C149	C	0.480542	-0.170716	-0.000119
H150	H	0.454517	-0.144859	-0.000107
H151	H	0.478501	-0.190136	-0.055785
H152	H	0.478518	-0.190122	0.055578
H153	H	-0.180248	-0.020712	-0.000193
H154	H	-0.202304	0.139243	-0.000153
H155	H	0.488657	-0.020038	-0.591302
C156	C	0.480319	-0.028342	-0.394612
H157	H	0.462991	-0.045685	-0.438932
H158	H	0.500288	-0.050721	-0.355392
H159	H	0.457920	-0.008372	-0.355423
C160	C	0.509415	0.000789	-0.243855
H161	H	0.513580	0.004962	-0.176805
H162	H	0.476276	0.009990	-0.260333
H163	H	0.518653	-0.032349	-0.260315
C164	C	-0.039175	-0.076032	-0.000203
H165	H	-0.013316	-0.102054	-0.000218
H166	H	-0.058592	-0.078076	0.055467
H167	H	-0.058584	-0.078060	-0.055895
H168	H	0.057737	-0.062438	-0.000185
H169	H	0.343355	-0.015402	-0.000125
H170	H	0.434821	-0.014469	-0.000118
C171	C	0.666754	-0.090391	-0.000201
H172	H	0.692778	-0.116248	-0.000196
H173	H	0.668785	-0.070979	-0.055881
H174	H	0.668790	-0.070977	0.055482
C175	C	0.418210	0.158144	-0.000076
H176	H	0.392352	0.184167	-0.000083
H177	H	0.437621	0.160177	0.055603
H178	H	0.437624	0.160179	-0.055759
H179	H	0.117526	-0.061832	-0.000180
C180	C	-0.302710	0.150833	-0.000162
H181	H	-0.335473	0.144175	-0.000176
H182	H	-0.296954	0.169032	0.055515
H183	H	-0.296946	0.169027	-0.055848
H184	H	0.208987	-0.060899	-0.000173
H185	H	0.695813	-0.333847	-0.000176
H186	H	0.694883	-0.425295	-0.000160
C187	C	0.659429	-0.811314	-0.000123
H188	H	0.685910	-0.792708	-0.000133
H189	H	0.661059	-0.831233	0.055555
H190	H	0.661058	-0.831233	-0.055807
H191	H	0.486960	-0.780296	-0.000089
H192	H	0.487888	-0.688846	-0.000074
C193	C	0.434106	-0.396517	-0.000046
H194	H	0.408085	-0.370657	-0.000026
H195	H	0.432060	-0.415932	-0.055718
H196	H	0.432078	-0.415928	0.055645
