data_functionalizedCrystal
_audit_creation_method	'MofGen! by Chris Wilmer'
_symmetry_space_group_name_H-M	'P1'
_symmetry_Int_Tables_number	1
_symmetry_cell_setting	triclinic
loop_
_symmetry_equiv_pos_as_xyz
  x,y,z
_cell_length_a	6.817900
_cell_length_b	11.102233
_cell_length_c	16.418042
_cell_angle_alpha	93.891001
_cell_angle_beta	103.389568
_cell_angle_gamma	108.604738
loop_
_atom_site_label
_atom_site_type_symbol
_atom_site_fract_x
_atom_site_fract_y
_atom_site_fract_z
V1	V	-4.051818	-0.176873	-0.261157
O2	O	-4.011990	0.007436	-0.256182
O3	O	-4.029000	-0.349686	-0.259373
O4	O	-4.002558	-0.174618	-0.375055
O5	O	-4.038616	-0.168843	-0.139700
V6	V	-4.532242	-0.154772	-0.246629
O7	O	-4.319873	-0.225352	-0.293024
O8	O	-4.714385	-0.106293	-0.214762
O9	O	-4.331854	0.018042	-0.248412
O10	O	-4.689467	-0.339081	-0.251604
O11	O	-4.662841	-0.162801	-0.368086
O12	O	-4.358296	-0.157026	-0.132731
C13	C	-3.880253	-0.391800	-0.255254
C14	C	-3.942878	-0.533081	-0.254556
C15	C	-3.848080	-0.725715	-0.249381
C16	C	-3.789240	-0.592969	-0.250045
C17	C	-4.155375	-0.605948	-0.258411
C18	C	-4.214215	-0.738693	-0.257752
C19	C	-3.636692	-0.718220	-0.244548
C20	C	-3.577852	-0.585473	-0.245212
C21	C	-3.846521	-0.168482	-0.402816
C22	C	-3.887698	-0.167782	-0.495929
C23	C	-4.165421	-0.172510	-0.714415
C24	C	-4.204090	-0.171841	-0.801902
C25	C	-3.837995	-0.159128	-0.793359
C26	C	-3.799323	-0.159787	-0.705872
C27	C	-3.963047	-0.166485	-0.666403
C28	C	-4.040388	-0.165157	-0.841377
C29	C	-4.082313	-0.164433	-0.936235
C30	C	-3.921118	-0.167207	-0.571539
C31	C	-4.143944	0.060149	-0.252529
C32	C	-4.060558	0.201428	-0.253233
C33	C	-4.177676	-0.163167	-0.104965
C34	C	-4.115736	-0.163860	-0.011852
H35	H	-4.298736	-0.177961	-0.682281
N36	N	-3.661412	-0.151916	-0.835926
H37	H	-3.630231	-0.072180	-0.863898
H38	H	-3.708480	-0.230600	-0.880129
H39	H	-3.527781	-0.556597	-0.304679
N40	N	-3.405866	-0.515155	-0.164990
H41	H	-3.272089	-0.461875	-0.179873
H42	H	-3.371740	-0.579600	-0.128746
N43	N	-3.581030	-0.153276	-0.654079
H44	H	-3.483183	-0.148940	-0.692357
H45	H	-3.596068	-0.232453	-0.625729
H46	H	-4.387236	-0.798012	-0.260900
N47	N	-4.422357	-0.178324	-0.853685
H48	H	-4.520195	-0.182663	-0.815403
H49	H	-4.485450	-0.257506	-0.898313
H50	H	-3.555589	-0.742451	-0.182087
H51	H	-3.604221	-0.765534	-0.301401
H52	H	-4.280469	-0.557178	-0.262090
