data_functionalizedCrystal
_audit_creation_method	'MofGen! by Chris Wilmer'
_symmetry_space_group_name_H-M	'P1'
_symmetry_Int_Tables_number	1
_symmetry_cell_setting	triclinic
loop_
_symmetry_equiv_pos_as_xyz
  x,y,z
_cell_length_a	18.215407
_cell_length_b	18.101395
_cell_length_c	18.215399
_cell_angle_alpha	89.973573
_cell_angle_beta	89.980167
_cell_angle_gamma	90.031552
loop_
_atom_site_label
_atom_site_type_symbol
_atom_site_fract_x
_atom_site_fract_y
_atom_site_fract_z
Zn1	Zn	1.125040	-0.294828	-0.416124
Zn2	Zn	1.124935	-0.418675	-0.293061
Zn3	Zn	1.001973	-0.294853	-0.293071
Zn4	Zn	1.001925	-0.418634	-0.416086
O5	O	1.063468	-0.356747	-0.354585
O6	O	1.228010	-0.311264	-0.399811
O7	O	1.108600	-0.402277	-0.190078
O8	O	1.018362	-0.191216	-0.309415
O9	O	1.227933	-0.402253	-0.309397
O10	O	1.108779	-0.191199	-0.399821
O11	O	1.018260	-0.311305	-0.190085
O12	O	0.898982	-0.311265	-0.309378
O13	O	1.018281	-0.402183	-0.519075
O14	O	0.898947	-0.402207	-0.399756
O15	O	1.108733	-0.311224	-0.519103
O16	O	1.108554	-0.522302	-0.309360
O17	O	1.018179	-0.522272	-0.399746
C18	C	0.872262	-0.356735	-0.354564
C19	C	0.790463	-0.356747	-0.354572
C20	C	0.602270	-0.404175	-0.401573
C21	C	0.525412	-0.404177	-0.401583
C22	C	0.525418	-0.309333	-0.307613
C23	C	0.602276	-0.309328	-0.307608
C24	C	0.640700	-0.356753	-0.354587
C25	C	0.486984	-0.356761	-0.354601
C26	C	0.403650	-0.356763	-0.354611
C27	C	0.724039	-0.356750	-0.354579
C28	C	1.063370	-0.549158	-0.354564
C29	C	1.063395	-0.631472	-0.354579
C30	C	1.063557	-0.930563	-0.354619
C31	C	1.006827	-0.899249	-0.411628
C32	C	1.006557	-0.813632	-0.411450
C33	C	1.063476	-0.782180	-0.354600
C34	C	1.042479	-0.813331	-0.277038
C35	C	1.042113	-0.898976	-0.277380
C36	C	1.141408	-0.898906	-0.374487
C37	C	1.140950	-0.813255	-0.376188
C38	C	1.063432	-0.698321	-0.354584
C39	C	1.063599	-1.014422	-0.354629
C40	C	1.255421	-0.356761	-0.354607
C41	C	1.337220	-0.356766	-0.354616
C42	C	1.063513	-0.356696	-0.546538
C43	C	1.063532	-0.356675	-0.628337
C44	C	1.063587	-0.163585	-0.354623
C45	C	1.063638	-0.081271	-0.354639
C46	C	1.110648	-0.309268	-0.816547
C47	C	1.110656	-0.309246	-0.893406
C48	C	1.016469	-0.403967	-0.893365
C49	C	1.016457	-0.403984	-0.816508
C50	C	1.063551	-0.356636	-0.778101
C51	C	1.063571	-0.356597	-0.931817
C52	C	1.063580	-0.356574	-1.015151
C53	C	1.063541	-0.356657	-0.694762
C54	C	1.063466	-0.356745	-0.163379
C55	C	1.063590	-0.356558	-0.081580
H56	H	0.633553	-0.442789	-0.439829
H57	H	1.148992	-0.270712	-0.785278
H58	H	1.185453	-0.791842	-0.337692
H59	H	0.494126	-0.442792	-0.439845
H60	H	0.494124	-0.270723	-0.269363
H61	H	0.978100	-0.442556	-0.785204
H62	H	0.948852	-0.793209	-0.398289
H63	H	0.633566	-0.270707	-0.269346
H64	H	0.986172	-0.791946	-0.259906
H65	H	1.019695	-0.792568	-0.468960
N66	N	0.966732	-0.925527	-0.255084
H67	H	0.929080	-0.906282	-0.291000
H68	H	0.965805	-0.981314	-0.255074
H69	H	1.019834	-0.919798	-0.469325
N70	N	1.161947	-0.786275	-0.451789
H71	H	1.169587	-0.829991	-0.485363
H72	H	1.121429	-0.754044	-0.471918
N73	N	1.197398	-0.925723	-0.319490
H74	H	1.172496	-0.958218	-0.281883
H75	H	1.236657	-0.954941	-0.345731
H76	H	1.160552	-0.920455	-0.430081
N77	N	1.161452	-0.258148	-0.934865
H78	H	1.214026	-0.269653	-0.921499
H79	H	1.154253	-0.265334	-0.989370
N80	N	0.930851	-0.927837	-0.394420
H81	H	0.933020	-0.960984	-0.349857
H82	H	0.897066	-0.884831	-0.384198
N83	N	1.094465	-0.926425	-0.219197
H84	H	1.117675	-0.882887	-0.193439
H85	H	1.066698	-0.957409	-0.182347
H86	H	0.978129	-0.442518	-0.924646
N87	N	1.095484	-0.786352	-0.219233
H88	H	1.133709	-0.753599	-0.242824
H89	H	1.067825	-0.757368	-0.180784
