data_functionalizedCrystal
_audit_creation_method	'MofGen! by Chris Wilmer'
_symmetry_space_group_name_H-M	'P1'
_symmetry_Int_Tables_number	1
_symmetry_cell_setting	triclinic
loop_
_symmetry_equiv_pos_as_xyz
  x,y,z
_cell_length_a	13.032831
_cell_length_b	16.625546
_cell_length_c	13.032268
_cell_angle_alpha	97.144614
_cell_angle_beta	90.886977
_cell_angle_gamma	82.826778
loop_
_atom_site_label
_atom_site_type_symbol
_atom_site_fract_x
_atom_site_fract_y
_atom_site_fract_z
Zn1	Zn	1.498429	-0.544521	-0.780776
Zn2	Zn	1.520160	-0.664651	-0.608784
Zn3	Zn	1.348291	-0.510838	-0.587021
Zn4	Zn	1.326409	-0.660292	-0.758909
O5	O	1.423322	-0.595075	-0.683873
O6	O	1.645231	-0.576377	-0.776220
O7	O	1.515614	-0.631976	-0.461981
O8	O	1.368270	-0.402484	-0.612767
O9	O	1.661197	-0.664636	-0.649858
O10	O	1.478576	-0.427231	-0.755118
O11	O	1.389342	-0.518970	-0.445992
O12	O	1.201469	-0.514743	-0.591563
O13	O	1.330976	-0.657206	-0.905725
O14	O	1.185392	-0.624546	-0.717849
O15	O	1.457358	-0.572150	-0.921791
O16	O	1.494396	-0.776895	-0.628654
O17	O	1.352048	-0.773692	-0.738951
C18	C	1.156114	-0.565517	-0.649972
C19	C	1.041798	-0.552893	-0.635494
C20	C	1.423230	-0.804552	-0.683817
C21	C	1.423281	-0.894180	-0.683840
C22	C	0.982917	-0.601664	-0.691429
C23	C	0.864766	-0.588618	-0.676466
C24	C	1.423447	-1.222385	-0.683970
C25	C	1.423397	-1.131068	-0.683936
C26	C	1.423363	-1.058285	-0.683904
C27	C	1.423315	-0.966963	-0.683872
C28	C	1.691574	-0.624750	-0.717906
C29	C	1.805887	-0.637396	-0.732409
C30	C	1.389302	-0.617949	-0.952117
C31	C	1.374805	-0.627696	-1.066427
C32	C	1.423440	-0.384786	-0.683954
C33	C	1.423490	-0.295173	-0.683989
C34	C	1.430873	-0.589958	-1.125339
C35	C	1.415890	-0.600031	-1.243485
C36	C	1.457270	-0.572239	-0.416679
C37	C	1.471966	-0.562287	-0.302395
H38	H	0.827708	-0.537199	-0.617501
O39	O	0.997621	-0.491458	-0.565260
C40	C	0.970907	-0.346397	-0.511450
C41	C	1.020972	-0.415891	-0.591078
H42	H	0.989786	-0.285286	-0.532283
H43	H	0.883482	-0.346739	-0.511925
H44	H	1.002451	-0.355732	-0.431141
H45	H	0.989511	-0.406603	-0.671426
H46	H	1.108394	-0.415530	-0.590513
O47	O	1.501364	-0.542576	-1.081011
C48	C	1.580499	-0.489272	-0.922832
C49	C	1.500645	-0.542970	-0.972897
H50	H	1.579929	-0.489560	-0.835413
H51	H	1.660800	-0.514389	-0.954335
H52	H	1.559834	-0.424062	-0.941689
H53	H	1.521214	-0.608192	-0.954060
H54	H	1.420367	-0.517787	-0.941391
H55	H	1.356786	-0.639795	-1.280509
H56	H	1.315704	-0.667457	-1.103456
H57	H	1.531059	-0.522512	-1.265370
H58	H	1.019978	-0.653074	-0.750398
O59	O	0.850255	-0.698718	-0.802688
C60	C	1.008459	-0.767576	-0.881759
C61	C	0.958351	-0.698113	-0.802115
H62	H	1.095860	-0.767100	-0.881337
H63	H	0.989762	-0.828734	-0.860910
H64	H	0.976833	-0.758283	-0.962051
H65	H	0.989948	-0.707329	-0.721795
H66	H	0.977042	-0.636981	-0.823053
