data_functionalizedCrystal
_audit_creation_method	'MofGen! by Chris Wilmer'
_symmetry_space_group_name_H-M	'P1'
_symmetry_Int_Tables_number	1
_symmetry_cell_setting	triclinic
loop_
_symmetry_equiv_pos_as_xyz
  x,y,z
_cell_length_a	13.897448
_cell_length_b	13.897449
_cell_length_c	13.897441
_cell_angle_alpha	89.979267
_cell_angle_beta	90.030599
_cell_angle_gamma	89.981028
loop_
_atom_site_label
_atom_site_type_symbol
_atom_site_fract_x
_atom_site_fract_y
_atom_site_fract_z
Zn1	Zn	-0.383951	-1.474703	0.545381
Zn2	Zn	-0.545273	-1.474597	0.384083
Zn3	Zn	-0.383997	-1.313392	0.384100
Zn4	Zn	-0.545210	-1.313373	0.545335
O5	O	-0.464608	-1.394016	0.464725
O6	O	-0.405358	-1.609670	0.523997
O7	O	-0.523925	-1.453176	0.249103
O8	O	-0.249009	-1.334842	0.405520
O9	O	-0.523881	-1.609592	0.405491
O10	O	-0.248976	-1.453356	0.524013
O11	O	-0.405436	-1.334739	0.249116
O12	O	-0.405375	-1.178408	0.405476
O13	O	-0.523773	-1.334811	0.680323
O14	O	-0.523817	-1.178394	0.523935
O15	O	-0.405297	-1.453339	0.680357
O16	O	-0.680246	-1.453158	0.405447
O17	O	-0.680200	-1.334708	0.523918
C18	C	-0.715222	-1.393946	0.464697
C19	C	-0.822436	-1.394004	0.464717
C20	C	-0.464595	-1.143402	0.464703
C21	C	-0.464613	-1.036188	0.464716
C22	C	-0.464522	-1.394085	0.716318
C23	C	-0.464486	-1.394114	0.823532
C24	C	-1.018731	-1.394105	0.464778
C25	C	-0.909499	-1.394046	0.464747
C26	C	-0.213015	-1.394113	0.464774
C27	C	-0.105801	-1.394154	0.464795
C28	C	-0.464621	-1.645609	0.464747
C29	C	-0.464627	-1.752823	0.464757
C30	C	-0.464616	-0.839893	0.464741
C31	C	-0.464611	-0.949125	0.464725
C32	C	-0.464623	-1.394003	0.214110
C33	C	-0.464388	-1.394161	0.106897
C34	C	-0.464421	-1.394140	1.019827
C35	C	-0.464460	-1.394122	0.910594
