data_functionalizedCrystal
_audit_creation_method	'MofGen! by Chris Wilmer'
_symmetry_space_group_name_H-M	'P1'
_symmetry_Int_Tables_number	1
_symmetry_cell_setting	triclinic
loop_
_symmetry_equiv_pos_as_xyz
  x,y,z
_cell_length_a	10.540510
_cell_length_b	10.540539
_cell_length_c	9.616153
_cell_angle_alpha	90.004826
_cell_angle_beta	90.000246
_cell_angle_gamma	95.480599
loop_
_atom_site_label
_atom_site_type_symbol
_atom_site_fract_x
_atom_site_fract_y
_atom_site_fract_z
O1	O	0.178898	-1.685873	-0.115572
O2	O	0.195754	-1.316458	-0.115588
O3	O	0.002617	-1.509613	-0.115579
O4	O	0.372035	-1.492718	-0.115581
O5	O	0.002621	-1.509587	0.115712
O6	O	0.195758	-1.316432	0.115703
O7	O	0.178902	-1.685846	0.115720
Zn8	Zn	0.187330	-1.501135	0.152434
Zn9	Zn	0.187325	-1.501170	-0.152302
O10	O	0.372039	-1.492691	0.115711
C11	C	0.194492	-1.269142	0.000055
C12	C	0.190710	-1.128194	0.000049
C13	C	-0.044685	-1.508341	0.000064
C14	C	-0.185635	-1.504574	0.000055
C15	C	0.180164	-1.733163	0.000073
C16	C	0.183946	-1.874110	0.000070
C17	C	-0.403090	-1.638758	0.000591
C18	C	-0.256495	-1.642776	0.000063
C19	C	-0.230396	-1.433843	-0.132024
C20	C	-0.377157	-1.430804	-0.132127
C21	C	-0.376961	-1.427896	0.130894
C22	C	-0.230619	-1.434451	0.132633
C23	C	0.419340	-1.493964	0.000065
C24	C	0.560290	-1.497731	0.000064
N25	N	0.187333	-1.501120	0.360408
C26	C	0.045791	-0.944783	0.000589
C27	C	0.049624	-1.091401	0.000054
C28	C	0.258604	-1.066530	-0.132025
C29	C	0.253789	-0.919986	-0.132121
C30	C	0.256663	-0.919467	0.130900
C31	C	0.257963	-1.066448	0.132632
N32	N	0.187312	-1.501195	-0.360277
C33	C	0.290302	-1.397479	0.580774
C34	C	0.290688	-1.397708	0.419606
C35	C	0.217467	-1.633840	0.418864
C36	C	0.218196	-1.633276	0.580082
C37	C	0.053893	-1.473362	0.580319
C38	C	0.054758	-1.470316	0.419092
H39	H	-0.227149	-1.698120	0.094740
O40	O	-0.027738	-0.904786	-0.124165
H41	H	-0.125113	-0.955218	-0.122789
H42	H	0.144503	-1.712903	0.380515
H43	H	-0.181553	-1.333551	0.140604
O44	O	-0.047692	-1.573475	0.630825
H45	H	-0.024974	-1.668799	0.594923
O46	O	0.266684	-1.266438	0.632192
H47	H	0.181294	-1.273824	0.700319
O48	O	-0.051643	-1.563744	0.365722
H49	H	-0.143793	-1.539264	0.409111
H50	H	-0.445044	-1.692589	0.095312
O51	O	0.187311	-0.882623	-0.262886
H52	H	0.101245	-0.835324	-0.234585
O53	O	-0.433169	-1.485738	0.263508
H54	H	-0.356582	-1.522919	0.326442
H55	H	-0.399111	-1.324132	0.131779
H56	H	-0.400152	-1.327438	-0.138116
O57	O	0.196169	-0.877699	0.263511
H58	H	0.199442	-0.772149	0.265419
H59	H	-0.446597	-1.692301	-0.093589
O60	O	0.196117	-1.122944	-0.262228
H61	H	0.267431	-1.169159	-0.324600
O62	O	0.388190	-0.856434	-0.140077
H63	H	0.408019	-0.795504	-0.046972
O64	O	-0.021121	-1.147856	0.125469
H65	H	-0.058394	-1.070440	0.187045
H66	H	-0.202006	-1.485917	0.230344
H67	H	-0.009944	-0.916193	0.095307
O68	O	-0.218849	-1.716518	-0.125570
H69	H	-0.305399	-1.749435	-0.186192
O70	O	0.420680	-1.420864	0.634413
H71	H	0.492658	-1.347128	0.592185
H72	H	0.208364	-1.107405	0.230340
H73	H	-0.004177	-1.133163	-0.094786
O74	O	0.421799	-1.421410	0.368483
H75	H	0.485171	-1.432767	0.458911
H76	H	0.272556	-1.299093	0.380087
H77	H	0.025213	-1.378628	0.621052
H78	H	-0.183007	-1.332102	-0.136940
H79	H	0.146206	-1.712926	0.619074
H80	H	-0.199541	-1.482985	-0.230312
O81	O	-0.430174	-1.495077	-0.262895
H82	H	-0.480438	-1.426439	-0.324817
O83	O	0.395844	-1.096126	-0.138561
H84	H	0.417167	-1.155247	-0.047529
O85	O	0.394212	-1.098528	0.143207
H86	H	0.447902	-1.062112	0.049858
H87	H	0.358568	-0.872229	0.131792
O88	O	0.347127	-1.665521	0.629891
H89	H	0.408373	-1.681362	0.538830
O90	O	0.344954	-1.666813	0.365392
H91	H	0.387049	-1.588890	0.297200
H92	H	0.031917	-1.372680	0.380888
