data_functionalizedCrystal
_audit_creation_method	'MofGen! by Chris Wilmer'
_symmetry_space_group_name_H-M	'P1'
_symmetry_Int_Tables_number	1
_symmetry_cell_setting	triclinic
loop_
_symmetry_equiv_pos_as_xyz
  x,y,z
_cell_length_a	10.654550
_cell_length_b	10.654541
_cell_length_c	9.130313
_cell_angle_alpha	89.995708
_cell_angle_beta	89.999724
_cell_angle_gamma	84.484430
loop_
_atom_site_label
_atom_site_type_symbol
_atom_site_fract_x
_atom_site_fract_y
_atom_site_fract_z
O1	O	1.667838	0.176399	-0.121689
O2	O	1.302359	0.193205	-0.121716
O3	O	1.493503	0.002063	-0.121693
O4	O	1.476694	0.367542	-0.121712
O5	O	1.493490	0.002057	0.121906
O6	O	1.302346	0.193200	0.121883
O7	O	1.667825	0.176393	0.121910
Cu8	Cu	1.485084	0.184796	0.144139
Cu9	Cu	1.485100	0.184803	-0.143945
O10	O	1.476681	0.367536	0.121887
C11	C	1.255555	0.191968	0.000080
C12	C	1.116112	0.188276	0.000070
C13	C	1.036625	0.300818	0.000068
C14	C	0.905604	0.297342	0.000094
C15	C	0.933569	0.068772	0.000117
C16	C	1.064588	0.072250	0.000102
C17	C	1.492263	-0.044738	0.000105
C18	C	1.488572	-0.184182	0.000103
C19	C	1.717137	-0.212153	0.000138
C20	C	1.829680	-0.291647	0.000158
C21	C	1.826204	-0.422665	0.000154
C22	C	1.710173	-0.474190	0.000124
C23	C	1.597630	-0.394696	0.000103
C24	C	1.601118	-0.263676	0.000113
C25	C	1.369069	-0.366725	0.000057
C26	C	1.372541	-0.235707	0.000073
C27	C	1.253037	-0.418251	0.000028
C28	C	1.140492	-0.338756	0.000018
C29	C	1.143972	-0.207731	0.000024
C30	C	1.259998	-0.156213	0.000052
C31	C	1.714629	0.177630	0.000110
C32	C	1.854072	0.181322	0.000111
C33	C	1.477921	0.414337	0.000085
C34	C	1.481612	0.553780	0.000078
N35	N	1.485082	0.184791	0.346761
N36	N	1.485111	0.184798	-0.346568
C37	C	1.569750	0.100189	0.423423
C38	C	1.569762	0.100189	0.576760
C39	C	1.400435	0.269404	0.576759
C40	C	1.400418	0.269397	0.423425
H41	H	1.078571	0.395294	0.000053
H42	H	1.638704	0.031297	0.639174
H43	H	1.331505	0.338291	0.639195
H44	H	1.924150	-0.249680	0.000195
C45	C	1.307282	0.362467	0.339091
H46	H	1.256874	0.412869	0.406708
H47	H	1.254611	0.316796	0.279290
H48	H	1.352914	0.415169	0.279262
H49	H	0.840891	0.388985	0.000095
H50	H	1.262843	-0.049533	0.000067
C51	C	0.876888	-0.058847	0.000133
H52	H	0.787474	-0.044802	0.000126
H53	H	0.904109	-0.105239	0.085080
H54	H	0.904101	-0.105228	-0.084827
H55	H	1.046028	-0.380719	-0.000016
H56	H	1.129309	-0.019401	0.000107
C57	C	1.706345	-0.618305	0.000092
H58	H	1.621128	-0.637607	0.000062
H59	H	1.747757	-0.653132	0.085037
H60	H	1.747772	-0.653085	-0.084870
H61	H	1.719978	-0.105472	0.000162
C62	C	1.249213	-0.562366	0.000027
H63	H	1.332855	-0.602333	0.000059
H64	H	1.206230	-0.586840	-0.084929
H65	H	1.206205	-0.586838	0.084979
H66	H	1.917847	-0.487390	0.000159
H67	H	1.052325	-0.143012	0.000001
H68	H	1.638687	0.031295	0.361007
