data_functionalizedCrystal
_audit_creation_method	'MofGen! by Chris Wilmer'
_symmetry_space_group_name_H-M	'P1'
_symmetry_Int_Tables_number	1
_symmetry_cell_setting	triclinic
loop_
_symmetry_equiv_pos_as_xyz
  x,y,z
_cell_length_a	6.817900
_cell_length_b	11.452831
_cell_length_c	16.255661
_cell_angle_alpha	82.564705
_cell_angle_beta	103.488922
_cell_angle_gamma	108.696887
loop_
_atom_site_label
_atom_site_type_symbol
_atom_site_fract_x
_atom_site_fract_y
_atom_site_fract_z
V1	V	-4.038579	-0.169805	-0.238865
O2	O	-4.013691	0.007146	-0.259900
O3	O	-4.001726	-0.335720	-0.212627
O4	O	-3.989990	-0.167638	-0.354267
O5	O	-4.025509	-0.162099	-0.117279
V6	V	-4.520735	-0.148587	-0.227311
O7	O	-4.302836	-0.216349	-0.264209
O8	O	-4.706676	-0.102044	-0.201967
O9	O	-4.334382	0.017327	-0.253549
O10	O	-4.663020	-0.325538	-0.206276
O11	O	-4.651203	-0.156293	-0.348896
O12	O	-4.346118	-0.150754	-0.111909
C13	C	-3.849542	-0.376152	-0.202510
C14	C	-3.900696	-0.511792	-0.181826
C15	C	-4.015781	-0.729295	-0.222402
C16	C	-3.962911	-0.589104	-0.243785
C17	C	-3.834570	-0.161746	-0.383185
C18	C	-3.876203	-0.161072	-0.477366
C19	C	-3.786197	-0.153023	-0.701370
C20	C	-3.949873	-0.256913	-0.755547
C21	C	-3.952499	-0.159809	-0.649801
C22	C	-3.863030	-0.054730	-0.763436
C23	C	-4.026181	-0.158583	-0.816365
C24	C	-4.115664	-0.263792	-0.702734
C25	C	-4.028752	-0.061516	-0.710621
C26	C	-4.192567	-0.165436	-0.764774
C27	C	-3.910047	-0.160516	-0.553847
C28	C	-4.068650	-0.157885	-0.912316
C29	C	-4.149908	0.057753	-0.263663
C30	C	-4.077993	0.193392	-0.284352
C31	C	-4.164880	-0.156650	-0.082985
C32	C	-4.102486	-0.157318	0.011195
H33	H	-4.092103	-0.769011	-0.353218
H34	H	-4.222061	-0.352241	-0.676241
H35	H	-3.977027	-0.551514	-0.312656
Br36	Br	-3.499335	-0.144493	-0.655151
H37	H	-3.756622	0.033601	-0.790054
H38	H	-4.364808	-0.170712	-0.792344
H39	H	-4.001650	-0.766890	-0.153535
Br40	Br	-3.877116	-0.574430	-0.067033
Br41	Br	-3.895048	-0.394603	-0.788750
Br42	Br	-4.083457	0.076180	-0.677378
