data_functionalizedCrystal
_audit_creation_method	'MofGen! by Chris Wilmer'
_symmetry_space_group_name_H-M	'P1'
_symmetry_Int_Tables_number	1
_symmetry_cell_setting	triclinic
loop_
_symmetry_equiv_pos_as_xyz
  x,y,z
_cell_length_a	10.540535
_cell_length_b	10.540539
_cell_length_c	14.048226
_cell_angle_alpha	89.995726
_cell_angle_beta	89.995942
_cell_angle_gamma	84.524567
loop_
_atom_site_label
_atom_site_type_symbol
_atom_site_fract_x
_atom_site_fract_y
_atom_site_fract_z
O1	O	1.685894	0.178876	-0.079104
O2	O	1.316480	0.195738	-0.079117
O3	O	1.509615	0.002600	-0.079109
O4	O	1.492759	0.372013	-0.079112
O5	O	1.509591	0.002588	0.079213
O6	O	1.316457	0.195726	0.079205
O7	O	1.685870	0.178864	0.079218
Zn8	Zn	1.501160	0.187293	0.104348
Zn9	Zn	1.501191	0.187309	-0.104247
O10	O	1.492736	0.372002	0.079210
C11	C	1.269165	0.194469	0.000042
C12	C	1.128217	0.190689	0.000037
C13	C	1.091546	0.049675	0.000042
C14	C	0.944946	0.045698	0.000411
C15	C	0.918868	0.255053	0.090282
C16	C	1.065633	0.258053	0.090348
C17	C	1.065544	0.260118	-0.089699
C18	C	0.919198	0.253597	-0.090876
C19	C	1.508339	-0.044709	0.000050
C20	C	1.504557	-0.185657	0.000045
C21	C	1.359640	-0.369081	-0.000315
C22	C	1.363474	-0.222463	0.000041
C23	C	1.572440	-0.247322	0.090457
C24	C	1.567625	-0.393866	0.090533
C25	C	1.570521	-0.394372	-0.089508
C26	C	1.571820	-0.247390	-0.090703
C27	C	1.733185	0.180133	0.000057
C28	C	1.874134	0.183913	0.000055
C29	C	1.494011	0.419311	0.000049
C30	C	1.497793	0.560259	0.000048
N31	N	1.501148	0.187282	0.246709
N32	N	1.501213	0.187310	-0.246608
C33	C	1.586695	0.101797	0.296530
C34	C	1.586704	0.101796	0.396188
C35	C	1.501170	0.187288	0.446022
C36	C	1.415613	0.272777	0.396194
C37	C	1.415600	0.272771	0.296538
C38	C	1.415650	0.272787	0.603908
C39	C	1.415665	0.272795	0.703571
C40	C	1.586754	0.101812	0.703558
C41	C	1.586741	0.101805	0.603902
C42	C	1.501185	0.187297	0.554081
H43	H	0.916483	-0.009676	0.065472
N44	N	1.674111	0.014525	0.552957
N45	N	1.753226	0.055613	0.497330
H46	H	1.814931	-0.006020	0.461339
H47	H	1.674682	-0.223169	-0.096159
H48	H	1.346013	0.342410	0.744141
N49	N	1.289965	-0.406930	0.080558
N50	N	1.189429	-0.459103	0.069126
H51	H	1.140220	-0.485823	0.126247
N52	N	1.674100	0.014451	0.754459
N53	N	1.674073	0.014434	0.843436
H54	H	1.735746	-0.047275	0.879390
H55	H	1.345978	0.342399	0.563347
H56	H	1.345964	0.342382	0.436775
N57	N	1.328201	0.360096	0.245658
N58	N	1.251836	0.436422	0.290161
H59	H	1.190104	0.498095	0.254229
H60	H	1.676047	-0.224970	0.093822
N61	N	0.908164	-0.024090	-0.080717
N62	N	0.990841	-0.070194	-0.138005
H63	H	0.964871	-0.119486	-0.195305
H64	H	1.656352	0.032185	0.255962
H65	H	1.309666	-0.180711	0.064956
N66	N	1.144201	-0.018238	-0.081124
N67	N	1.209375	0.036489	-0.139921
H68	H	1.246570	-0.011473	-0.197249
H69	H	1.656362	0.032186	0.436752
H70	H	1.524869	-0.425919	-0.158034
N71	N	0.857702	0.380161	-0.098016
N72	N	0.790474	0.411875	-0.168976
H73	H	0.747042	0.501269	-0.173992
H74	H	0.887956	0.206235	0.157688
N75	N	1.118855	0.205027	-0.175544
N76	N	1.235539	0.204900	-0.191477
H77	H	1.273206	0.166014	-0.252109
H78	H	1.134995	-0.003574	0.064651
H79	H	1.105794	0.210000	0.158053
N80	N	1.513282	-0.193907	0.174870
N81	N	1.576978	-0.137040	0.233371
H82	H	1.535193	-0.099317	0.292988
N83	N	0.859459	0.382716	0.094162
N84	N	0.783303	0.422787	0.030321
H85	H	0.741344	0.512950	0.033058
N86	N	1.094514	0.387736	0.095176
N87	N	1.006308	0.475740	0.098491
H88	H	1.026699	0.567328	0.101909
H89	H	1.087729	0.363870	-0.090573
H90	H	0.890605	0.201826	-0.157627
H91	H	1.310059	-0.179854	-0.064770
H92	H	1.672425	-0.441599	-0.090113
N93	N	1.509593	-0.195986	-0.174597
N94	N	1.504168	-0.078985	-0.190790
H95	H	1.460215	-0.042663	-0.250035
N96	N	1.289750	-0.404948	-0.081660
N97	N	1.340937	-0.483011	-0.140315
H98	H	1.291579	-0.508347	-0.197770
H99	H	1.669089	-0.441837	0.094638
N100	N	1.504663	-0.429237	0.175314
N101	N	1.464574	-0.345729	0.234015
H102	H	1.420104	-0.370702	0.293894
