data_functionalizedCrystal
_audit_creation_method	'MofGen! by Chris Wilmer'
_symmetry_space_group_name_H-M	'P1'
_symmetry_Int_Tables_number	1
_symmetry_cell_setting	triclinic
loop_
_symmetry_equiv_pos_as_xyz
  x,y,z
_cell_length_a	6.817900
_cell_length_b	15.300992
_cell_length_c	14.858572
_cell_angle_alpha	94.836158
_cell_angle_beta	104.524003
_cell_angle_gamma	104.175078
loop_
_atom_site_label
_atom_site_type_symbol
_atom_site_fract_x
_atom_site_fract_y
_atom_site_fract_z
V1	V	-4.041806	-0.125326	-0.290242
O2	O	-4.025461	0.005438	-0.284428
O3	O	-3.996655	-0.247939	-0.288534
O4	O	-3.998399	-0.123655	-0.416699
O5	O	-4.023705	-0.119706	-0.155375
V6	V	-4.524366	-0.109655	-0.274077
O7	O	-4.305177	-0.159702	-0.325700
O8	O	-4.711192	-0.075279	-0.238618
O9	O	-4.346310	0.012958	-0.275785
O10	O	-4.658107	-0.240420	-0.279890
O11	O	-4.659864	-0.115275	-0.408943
O12	O	-4.344566	-0.111326	-0.147619
C13	C	-3.842285	-0.277821	-0.284026
C14	C	-3.886688	-0.378061	-0.283473
C15	C	-3.863544	-0.412109	-0.198019
C16	C	-3.905287	-0.506296	-0.197502
C17	C	-3.970158	-0.566432	-0.282440
C18	C	-3.993309	-0.532378	-0.367900
C19	C	-3.951581	-0.438193	-0.368417
C20	C	-4.080274	-0.728687	-0.366818
C21	C	-4.122001	-0.822877	-0.366302
C22	C	-4.033980	-0.796789	-0.195904
C23	C	-3.992252	-0.702605	-0.196420
C24	C	-4.015402	-0.668557	-0.281881
C25	C	-3.844509	-0.119283	-0.447513
C26	C	-3.890324	-0.118728	-0.550895
C27	C	-4.058010	-0.116698	-0.929459
C28	C	-4.011346	-0.117263	-0.824131
C29	C	-3.974168	-0.117714	-0.740180
C30	C	-3.927502	-0.118277	-0.634845
C31	C	-4.164022	0.042836	-0.280289
C32	C	-4.098857	0.143074	-0.280849
C33	C	-4.161798	-0.115701	-0.116800
C34	C	-4.095221	-0.116252	-0.013417
H35	H	-4.099162	-0.700970	-0.436410
H36	H	-3.810706	-0.363151	-0.128853
H37	H	-3.886443	-0.534013	-0.127918
O38	O	-4.056607	-0.590889	-0.450355
C39	C	-4.256722	-0.650507	-0.459583
H40	H	-4.282550	-0.654750	-0.387008
H41	H	-4.383729	-0.623707	-0.504922
C42	C	-4.237137	-0.740889	-0.595596
C43	C	-4.268852	-0.746107	-0.506457
H44	H	-4.244626	-0.799859	-0.624514
H45	H	-4.102320	-0.700722	-0.589382
H46	H	-4.342981	-0.718552	-0.633366
H47	H	-4.162994	-0.768432	-0.468685
H48	H	-4.403653	-0.786280	-0.512666
H49	H	-3.939419	-0.653643	-0.127256
O50	O	-3.974400	-0.405230	-0.451492
C51	C	-4.184706	-0.440532	-0.507603
H52	H	-4.260270	-0.506665	-0.484476
H53	H	-4.276492	-0.388777	-0.499175
C54	C	-4.095562	-0.378443	-0.639928
C55	C	-4.188365	-0.459674	-0.611528
H56	H	-4.097824	-0.390248	-0.704034
H57	H	-3.953877	-0.354657	-0.602124
H58	H	-4.172063	-0.335322	-0.632896
H59	H	-4.111850	-0.502789	-0.618548
H60	H	-4.330039	-0.483469	-0.649335
O61	O	-4.011744	-0.830013	-0.112973
C62	C	-4.062470	-0.926037	-0.130726
H63	H	-4.169312	-0.951701	-0.205498
H64	H	-3.911684	-0.948113	-0.122427
C65	C	-4.046020	-0.934918	0.031511
C66	C	-4.177259	-0.966440	-0.060323
H67	H	-4.116818	-0.959842	0.074941
H68	H	-4.011836	-0.870225	0.043473
H69	H	-3.920373	-0.953317	0.038414
H70	H	-4.302890	-0.948031	-0.067227
H71	H	-4.211466	-1.031131	-0.072284
O72	O	-4.185397	-0.881272	-0.448841
C73	C	-4.375287	-0.870549	-0.505213
H74	H	-4.459181	-0.840071	-0.458586
H75	H	-4.339350	-0.823034	-0.557651
C76	C	-4.414889	-1.001627	-0.616211
C77	C	-4.517939	-0.964200	-0.558942
H78	H	-4.502881	-1.059394	-0.649357
H79	H	-4.286953	-1.008849	-0.578234
H80	H	-4.384947	-0.962022	-0.659901
H81	H	-4.547855	-1.003799	-0.515246
H82	H	-4.645884	-0.956986	-0.596913
