data_functionalizedCrystal
_audit_creation_method	'MofGen! by Chris Wilmer'
_symmetry_space_group_name_H-M	'P1'
_symmetry_Int_Tables_number	1
_symmetry_cell_setting	triclinic
loop_
_symmetry_equiv_pos_as_xyz
  x,y,z
_cell_length_a	17.639054
_cell_length_b	16.120484
_cell_length_c	17.639306
_cell_angle_alpha	104.591192
_cell_angle_beta	65.665306
_cell_angle_gamma	104.622514
loop_
_atom_site_label
_atom_site_type_symbol
_atom_site_fract_x
_atom_site_fract_y
_atom_site_fract_z
Zn1	Zn	1.346299	-0.200702	-0.729271
Zn2	Zn	1.313627	-0.318696	-0.596148
Zn3	Zn	1.180610	-0.200678	-0.563548
Zn4	Zn	1.201777	-0.366298	-0.707904
O5	O	1.260578	-0.271593	-0.649218
O6	O	1.458116	-0.196443	-0.734198
O7	O	1.273450	-0.283110	-0.475698
O8	O	1.207404	-0.081987	-0.580831
O9	O	1.434111	-0.283133	-0.636393
O10	O	1.329135	-0.082005	-0.702587
O11	O	1.175723	-0.196402	-0.451747
O12	O	1.067268	-0.242559	-0.560112
O13	O	1.243481	-0.364262	-0.826865
O14	O	1.082819	-0.364239	-0.666170
O15	O	1.349660	-0.242600	-0.842563
O16	O	1.293975	-0.443705	-0.615674
O17	O	1.211799	-0.478677	-0.697781
C18	C	1.044927	-0.308562	-0.607286
C19	C	0.952673	-0.324402	-0.589367
C20	C	0.810135	-0.391760	-0.513110
C21	C	0.896823	-0.376871	-0.529953
C22	C	0.921851	-0.286804	-0.631966
C23	C	0.835164	-0.301689	-0.615134
C24	C	0.779312	-0.354167	-0.555705
C25	C	0.804341	-0.264096	-0.657730
C26	C	0.717661	-0.278976	-0.640896
C27	C	0.661804	-0.331449	-0.581468
C28	C	0.692632	-0.369047	-0.538872
C29	C	0.860193	-0.211614	-0.717154
C30	C	0.829370	-0.174021	-0.759749
C31	C	0.742689	-0.188905	-0.742921
C32	C	0.686832	-0.241379	-0.683492
C33	C	0.711860	-0.151308	-0.785517
C34	C	0.625180	-0.166188	-0.768683
C35	C	0.600152	-0.256259	-0.666659
C36	C	1.251665	-0.491966	-0.657969
C37	C	1.247933	-0.586234	-0.661755
C38	C	1.241127	-0.758823	-0.668685
C39	C	1.280181	-0.783500	-0.629794
C40	C	1.276394	-0.879535	-0.633650
C41	C	1.244913	-0.662780	-0.664830
C42	C	1.477072	-0.234481	-0.691315
C43	C	1.569329	-0.218666	-0.709254
C44	C	1.302576	-0.308744	-0.865666
C45	C	1.320473	-0.324575	-0.957903
C46	C	1.269553	-0.050360	-0.640456
C47	C	1.273378	0.043917	-0.636722
C48	C	1.124953	-0.150954	-1.198940
C49	C	1.141788	-0.165844	-1.285616
C50	C	1.243540	-0.256124	-1.310533
C51	C	1.226717	-0.241238	-1.223859
C52	C	1.167422	-0.188653	-1.168069
C53	C	1.269185	-0.278936	-1.192987
C54	C	1.252360	-0.264055	-1.106320
C55	C	1.193066	-0.211474	-1.050524
C56	C	1.150596	-0.173771	-1.081401
C57	C	1.328476	-0.331526	-1.248778
C58	C	1.370944	-0.369225	-1.217906
C59	C	1.354124	-0.354338	-1.131238
C60	C	1.294830	-0.301758	-1.075442
C61	C	1.396593	-0.392042	-1.100361
C62	C	1.379768	-0.377160	-1.013693
C63	C	1.278004	-0.286876	-0.988775
C64	C	1.218794	-0.234518	-0.433619
C65	C	1.201068	-0.218421	-0.341404
H66	H	0.591222	-0.343549	-0.567750
H67	H	1.316460	-0.732503	-0.593601
N68	N	0.772108	-0.094721	-0.849621
H69	H	0.803127	-0.043410	-0.821386
H70	H	0.814081	-0.129748	-0.896350
N71	N	1.214049	-0.230159	-0.928595
H72	H	1.209837	-0.226456	-0.869008
H73	H	1.232369	-0.169968	-0.943858
H74	H	1.342175	-0.343638	-1.319348
N75	N	1.193069	-0.826364	-0.716621
H76	H	1.197143	-0.886384	-0.712610
H77	H	1.131879	-0.818940	-0.691520
N78	N	1.095976	-0.125195	-1.318922
H79	H	1.108388	-0.059792	-1.303961
H80	H	1.115657	-0.142678	-1.382284
H81	H	0.647155	-0.411788	-0.490486
N82	N	1.174924	-0.195412	-0.957047
H83	H	1.130919	-0.156379	-0.926391
H84	H	1.153291	-0.252660	-0.935571
N85	N	0.539905	-0.312853	-0.602554
H86	H	0.480317	-0.316570	-0.598353
H87	H	0.555093	-0.373051	-0.620717
N88	N	0.749888	-0.448372	-0.449021
H89	H	0.782565	-0.469937	-0.424593
H90	H	0.707869	-0.413381	-0.402313
N91	N	1.307483	-0.312847	-1.370707
H92	H	1.311697	-0.316559	-1.430295
H93	H	1.364358	-0.286882	-1.366560
H94	H	0.930772	-0.199496	-0.730855
H95	H	0.967336	-0.244074	-0.680351
N96	N	1.086650	-0.117046	-1.021219
H97	H	1.062299	-0.095416	-1.053925
H98	H	1.039857	-0.151984	-0.979161
N99	N	1.061007	-0.094229	-1.138758
H100	H	1.036656	-0.072599	-1.171464
H101	H	1.014214	-0.129167	-1.096700
H102	H	0.874855	-0.131291	-0.808135
N103	N	1.460539	-0.448758	-1.160546
H104	H	1.517452	-0.422830	-1.156476
H105	H	1.442188	-0.508965	-1.145319
N106	N	0.930069	-0.417417	-0.484005
H107	H	0.881532	-0.452917	-0.443804
H108	H	0.970997	-0.456336	-0.526266
H109	H	1.419219	-0.412043	-1.263341
H110	H	1.414362	-0.407845	-0.988560
N111	N	0.591927	-0.125642	-0.814620
H112	H	0.640461	-0.090142	-0.854824
H113	H	0.562015	-0.172985	-0.847356
