data_functionalizedCrystal
_audit_creation_method	'MofGen! by Chris Wilmer'
_symmetry_space_group_name_H-M	'P1'
_symmetry_Int_Tables_number	1
_symmetry_cell_setting	triclinic
loop_
_symmetry_equiv_pos_as_xyz
  x,y,z
_cell_length_a	16.109302
_cell_length_b	19.188930
_cell_length_c	15.186229
_cell_angle_alpha	89.991143
_cell_angle_beta	89.994701
_cell_angle_gamma	83.303281
loop_
_atom_site_label
_atom_site_type_symbol
_atom_site_fract_x
_atom_site_fract_y
_atom_site_fract_z
O1	O	1.102833	0.089746	-0.073278
O2	O	0.860734	0.100914	-0.073273
O3	O	0.988770	-0.006309	-0.073258
O4	O	0.974797	0.196970	-0.073292
O5	O	0.988761	-0.006310	0.073199
O6	O	0.860725	0.100913	0.073185
O7	O	1.102824	0.089745	0.073179
Zn8	Zn	0.981774	0.095329	0.096435
Zn9	Zn	0.981785	0.095331	-0.096529
O10	O	0.974788	0.196968	0.073165
C11	C	0.829756	0.100461	-0.000043
C12	C	0.737466	0.099105	-0.000040
C13	C	0.525130	0.095967	0.079786
C14	C	0.438415	0.094685	0.079783
C15	C	0.438434	0.094690	-0.079893
C16	C	0.525149	0.095967	-0.079889
C17	C	0.568495	0.096609	-0.000047
C18	C	0.395064	0.094050	-0.000054
C19	C	0.301043	0.092660	-0.000058
C20	C	0.662522	0.097998	-0.000043
C21	C	0.988313	-0.032322	-0.000027
C22	C	0.986955	-0.109829	-0.000020
C23	C	1.062082	-0.154578	-0.000017
C24	C	1.060806	-0.227404	-0.000031
C25	C	0.984398	-0.255480	-0.000030
C26	C	0.909261	-0.210722	-0.000037
C27	C	0.910539	-0.137897	-0.000032
N28	N	0.925991	-0.363622	0.049814
N29	N	0.924782	-0.432803	0.049810
C30	C	0.980542	-0.474897	-0.000048
N31	N	1.037571	-0.445198	-0.049892
N32	N	1.038782	-0.376011	-0.049885
C33	C	0.983004	-0.334446	-0.000036
C34	C	1.054291	-0.598613	-0.000062
C35	C	1.053012	-0.671441	-0.000081
C36	C	0.901465	-0.654757	-0.000079
C37	C	0.902746	-0.581931	-0.000068
C38	C	0.979162	-0.553864	-0.000055
C39	C	1.133802	0.090198	-0.000052
C40	C	1.226093	0.091555	-0.000061
N41	N	0.981772	0.095327	0.228128
C42	C	0.975245	0.222981	-0.000068
C43	C	0.976604	0.300489	-0.000082
N44	N	0.981793	0.095327	-0.228221
C45	C	1.038485	0.047864	0.453857
C46	C	1.038488	0.047863	0.546047
C47	C	0.925073	0.142792	0.546043
C48	C	0.925068	0.142789	0.453855
C49	C	0.981778	0.095327	0.407764
C50	C	0.981787	0.095327	0.592142
C51	C	0.981789	0.095326	0.692098
C52	C	0.981775	0.095327	0.307802
H53	H	1.124305	-0.131731	-0.000010
H54	H	1.121986	-0.263845	-0.000033
H55	H	0.847049	-0.233585	-0.000038
H56	H	0.841569	-0.545495	-0.000065
C57	C	0.572857	0.096677	-0.167707
H58	H	0.630709	0.097523	-0.156268
H59	H	0.552162	0.137160	-0.200517
H60	H	0.565141	0.055773	-0.200507
H61	H	0.849360	-0.101462	-0.000034
H62	H	1.116513	-0.575760	-0.000056
H63	H	1.114192	-0.707875	-0.000084
H64	H	0.839252	-0.677615	-0.000082
H65	H	1.084662	0.009216	0.416332
C66	C	1.100869	-0.004343	0.596745
H67	H	1.134644	-0.032605	0.556089
H68	H	1.071075	-0.033416	0.632719
H69	H	1.135388	0.020788	0.632695
C70	C	0.862705	0.195003	0.596746
H71	H	0.870835	0.188212	0.658251
H72	H	0.807245	0.187410	0.581651
H73	H	0.871570	0.241604	0.581622
C74	C	0.862694	0.195004	0.403146
H75	H	0.870810	0.188200	0.341641
H76	H	0.871555	0.241604	0.418241
H77	H	0.807233	0.187408	0.418262
C78	C	0.572811	0.096653	0.167607
H79	H	0.534564	0.096076	0.215152
H80	H	0.600156	0.137837	0.170937
H81	H	0.613122	0.056450	0.170920
C82	C	0.390751	0.093993	-0.167712
H83	H	0.332894	0.093149	-0.156282
H84	H	0.411452	0.053514	-0.200513
H85	H	0.398478	0.134901	-0.200514
C86	C	0.390717	0.093983	0.167599
H87	H	0.428953	0.094554	0.215147
H88	H	0.363378	0.052794	0.170927
H89	H	0.350399	0.134181	0.170908
