data_functionalizedCrystal
_audit_creation_method	'MofGen! by Chris Wilmer'
_symmetry_space_group_name_H-M	'P1'
_symmetry_Int_Tables_number	1
_symmetry_cell_setting	triclinic
loop_
_symmetry_equiv_pos_as_xyz
  x,y,z
_cell_length_a	17.699083
_cell_length_b	10.654550
_cell_length_c	9.730223
_cell_angle_alpha	90.004253
_cell_angle_beta	89.998388
_cell_angle_gamma	96.116028
loop_
_atom_site_label
_atom_site_type_symbol
_atom_site_fract_x
_atom_site_fract_y
_atom_site_fract_z
O1	O	1.005084	-0.158805	-0.114236
O2	O	0.784837	-0.179467	-0.114250
O3	O	0.900024	0.013692	-0.114234
O4	O	0.889897	-0.351964	-0.114252
O5	O	0.900017	0.013697	0.114346
O6	O	0.784830	-0.179462	0.114330
O7	O	1.005077	-0.158800	0.114344
Zn8	Zn	0.894952	-0.169130	0.150629
Zn9	Zn	0.894962	-0.169137	-0.150535
O10	O	0.889889	-0.351959	0.114328
C11	C	0.756632	-0.178724	0.000038
C12	C	0.672599	-0.176503	0.000033
N13	N	0.894951	-0.169125	0.356165
C14	C	1.033282	-0.159543	0.000053
C15	C	1.117314	-0.161764	0.000050
C16	C	1.165214	-0.048384	0.000050
C17	C	1.244171	-0.050479	0.000055
C18	C	1.275226	-0.165954	0.000048
C19	C	1.227320	-0.279343	0.000052
C20	C	1.148365	-0.277247	0.000057
C21	C	1.545736	-0.287797	0.000032
C22	C	1.624698	-0.289884	0.000022
C23	C	1.641543	-0.061028	0.000029
C24	C	1.562588	-0.058933	0.000034
C25	C	1.514689	-0.172321	0.000045
C26	C	1.429075	-0.170048	0.000043
C27	C	1.360838	-0.168228	0.000041
C28	C	0.899277	0.060479	0.000055
C29	C	0.897052	0.199884	0.000053
C30	C	0.890637	-0.398746	0.000036
C31	C	0.892861	-0.538151	0.000029
C32	C	0.964873	0.280556	0.000057
C33	C	0.962778	0.411541	0.000040
C34	C	0.825036	0.381166	0.000021
C35	C	0.827132	0.250185	0.000028
N36	N	0.894969	-0.169132	-0.356071
C37	C	0.945973	-0.083630	0.428099
C38	C	0.945981	-0.083630	0.571982
C39	C	0.843941	-0.254631	0.571986
C40	C	0.843930	-0.254624	0.428105
H41	H	1.139936	0.045650	0.000047
F42	F	0.754944	0.164321	0.000014
H43	H	1.021807	0.239606	0.000074
H44	H	0.768109	0.422138	0.000003
F45	F	1.494768	-0.408475	0.000029
H46	H	1.018004	0.477220	0.000040
F47	F	1.000272	0.007370	0.351541
F48	F	1.000284	0.007367	0.648533
F49	F	1.295147	0.070196	0.000063
H50	H	0.802402	-0.324245	0.630573
F51	F	1.260373	-0.402241	0.000049
H52	H	1.537308	0.035099	0.000033
F53	F	1.692527	0.059651	0.000026
H54	H	1.109364	-0.369573	0.000062
F55	F	0.789620	-0.345619	0.351543
H56	H	1.649979	-0.383924	0.000024
