data_functionalizedCrystal
_audit_creation_method	'MofGen! by Chris Wilmer'
_symmetry_space_group_name_H-M	'P1'
_symmetry_Int_Tables_number	1
_symmetry_cell_setting	triclinic
loop_
_symmetry_equiv_pos_as_xyz
  x,y,z
_cell_length_a	16.974867
_cell_length_b	14.472310
_cell_length_c	16.974813
_cell_angle_alpha	93.655639
_cell_angle_beta	96.372291
_cell_angle_gamma	93.638125
loop_
_atom_site_label
_atom_site_type_symbol
_atom_site_fract_x
_atom_site_fract_y
_atom_site_fract_z
O1	O	-1.049027	0.006017	0.100740
O2	O	-0.818811	0.024175	0.113583
O3	O	-0.940336	0.006005	-0.007948
O4	O	-0.927503	0.024187	0.222272
O5	O	-0.940305	-0.147675	-0.007941
O6	O	-0.818780	-0.129504	0.113590
O7	O	-1.048996	-0.147662	0.100747
Cu8	Cu	-0.933885	-0.152615	0.107169
Cu9	Cu	-0.933922	0.029128	0.107161
O10	O	-0.927471	-0.129492	0.222279
C11	C	-0.789339	-0.050501	0.113099
C12	C	-0.701565	-0.044053	0.111638
C13	C	-0.207500	0.001292	0.103383
C14	C	-0.289973	-0.004778	0.104757
C15	C	-0.331183	-0.091584	0.105453
C16	C	-0.289918	-0.172326	0.104768
C17	C	-0.207448	-0.166255	0.103389
C18	C	-0.577830	-0.118724	0.109573
C19	C	-0.660306	-0.124789	0.110955
C20	C	-0.660355	0.042760	0.110942
C21	C	-0.577883	0.048823	0.109568
C22	C	-0.536625	-0.031919	0.108879
N23	N	-0.415483	-0.097791	0.106860
N24	N	-0.452328	-0.025711	0.107467
N25	N	-0.933865	-0.280444	0.107175
C26	C	-0.933921	-0.654541	0.107158
C27	C	-0.868678	-0.605653	0.171969
C28	C	-0.868828	-0.498558	0.172205
C29	C	-0.933892	-0.468947	0.107166
C30	C	-1.016373	-0.512604	0.125094
C31	C	-1.016007	-0.619664	0.125554
C32	C	-0.917419	-0.620042	0.024226
C33	C	-0.915527	-0.512732	0.024781
C34	C	-0.933882	-0.364058	0.107169
C35	C	-0.933937	-0.759430	0.107156
C36	C	-0.078468	-0.072989	0.101233
C37	C	-0.166241	-0.079443	0.102701
C38	C	-0.939832	-0.073000	-0.037403
C39	C	-0.938366	-0.079452	-0.125177
N40	N	-0.933949	0.156956	0.107149
C41	C	-0.937697	0.001287	-0.166414
C42	C	-0.936315	-0.004778	-0.248887
C43	C	-0.935608	-0.091582	-0.290123
C44	C	-0.936275	-0.172327	-0.248881
C45	C	-0.937651	-0.166261	-0.166408
C46	C	-0.931485	-0.118706	-0.536778
C47	C	-0.930111	-0.124766	-0.619256
C48	C	-0.930149	0.042784	-0.619256
C49	C	-0.931530	0.048842	-0.536783
C50	C	-0.932193	-0.031902	-0.495547
N51	N	-0.934198	-0.097783	-0.374424
N52	N	-0.933597	-0.025700	-0.411247
C53	C	-0.927976	-0.050485	0.251733
C54	C	-0.929441	-0.044027	0.339508
H55	H	-0.544250	-0.184471	0.109001
C56	C	-0.833562	-0.473697	0.006391
C57	C	-0.783520	-0.402400	0.065878
C58	C	-0.701556	-0.363359	0.047490
C59	C	-0.669634	-0.395614	-0.030385
C60	C	-0.719677	-0.466915	-0.089876
C61	C	-0.801641	-0.505956	-0.071488
H62	H	-0.807150	-0.378520	0.123530
H63	H	-0.664511	-0.310577	0.091530
H64	H	-0.608959	-0.366713	-0.043997
H65	H	-0.696047	-0.490796	-0.147528
H66	H	-0.838686	-0.558738	-0.115529
H67	H	-0.323479	-0.243006	0.105330
C68	C	-0.975564	-0.486154	-0.043419
C69	C	-1.064777	-0.513489	-0.043793
C70	C	-1.124823	-0.486912	-0.111990
C71	C	-1.095657	-0.432999	-0.179813
C72	C	-1.006440	-0.405660	-0.179441
C73	C	-0.946393	-0.432238	-0.111244
H74	H	-1.086371	-0.553402	0.006416
H75	H	-1.190868	-0.507150	-0.112265
H76	H	-1.140107	-0.413325	-0.230296
H77	H	-0.984845	-0.365748	-0.229650
H78	H	-0.880349	-0.411999	-0.110970
H79	H	-0.938276	0.071972	-0.132846
C80	C	-1.035664	-0.648767	0.207257
C81	C	-1.109270	-0.714772	0.213082
C82	C	-1.128926	-0.743869	0.294787
C83	C	-1.074976	-0.706961	0.370667
C84	C	-1.001366	-0.640953	0.364845
C85	C	-0.981710	-0.611856	0.283139
H86	H	-1.149211	-0.742097	0.156909
H87	H	-1.183418	-0.792734	0.299097
H88	H	-1.089527	-0.728501	0.431150
H89	H	-0.961425	-0.613628	0.421018
H90	H	-0.927218	-0.562991	0.278830
H91	H	-0.173854	-0.231998	0.102841
H92	H	-0.693856	-0.195480	0.111528
C93	C	-0.883053	-0.458764	0.255346
C94	C	-0.959945	-0.488209	0.290320
C95	C	-0.974173	-0.448417	0.373465
C96	C	-0.911507	-0.379180	0.421636
C97	C	-0.834609	-0.349731	0.386663
C98	C	-0.820382	-0.389523	0.303518
H99	H	-1.006339	-0.539466	0.254661
H100	H	-1.031098	-0.470217	0.399354
H101	H	-0.922039	-0.349723	0.483185
H102	H	-0.788216	-0.298474	0.422323
H103	H	-0.763457	-0.367722	0.277629
H104	H	-0.544335	0.119510	0.109000
H105	H	-0.807167	-0.627631	0.161479
C106	C	-1.083769	-0.664574	0.064585
C107	C	-1.064956	-0.729824	-0.005069
C108	C	-1.132822	-0.774858	-0.065852
C109	C	-1.219502	-0.754642	-0.056981
C110	C	-1.238318	-0.689389	0.012676
C111	C	-1.170452	-0.644355	0.073458
H112	H	-1.000787	-0.744792	-0.011638
H113	H	-1.118892	-0.823163	-0.117416
H114	H	-1.269740	-0.787979	-0.101976
H115	H	-1.302487	-0.674421	0.019245
H116	H	-1.184382	-0.596050	0.125023
H117	H	-0.807516	-0.468520	0.161538
H118	H	-0.879061	-0.628759	0.233167
C119	C	-0.929318	-0.220246	-0.664633
C120	C	-0.859737	-0.241608	-0.712282
C121	C	-0.858942	-0.337077	-0.757666
C122	C	-0.927727	-0.411184	-0.755401
C123	C	-0.997314	-0.389824	-0.707750
C124	C	-0.998109	-0.294355	-0.662366
H125	H	-0.808813	-0.186748	-0.713960
H126	H	-0.807429	-0.352888	-0.792941
H127	H	-0.927139	-0.481855	-0.788998
H128	H	-1.048238	-0.444684	-0.706072
H129	H	-1.049622	-0.278543	-0.627091
C130	C	-0.837922	-0.652376	0.000918
C131	C	-0.825154	-0.756744	-0.008148
C132	C	-0.745653	-0.789077	-0.031446
C133	C	-0.678919	-0.717043	-0.045679
C134	C	-0.691685	-0.612669	-0.036614
C135	C	-0.771186	-0.580336	-0.013315
H136	H	-0.874556	-0.810074	0.002389
H137	H	-0.736203	-0.866342	-0.038156
H138	H	-0.620068	-0.740979	-0.062926
H139	H	-0.642283	-0.559339	-0.047150
H140	H	-0.780636	-0.503071	-0.006605
H141	H	-0.935695	-0.243005	-0.282461
C142	C	-0.935585	0.084040	-0.294242
C143	C	-1.004421	0.148171	-0.291955
C144	C	-1.003691	0.236995	-0.337308
C145	C	-0.934125	0.261689	-0.384947
C146	C	-0.865283	0.197556	-0.387235
C147	C	-0.866013	0.108732	-0.341883
H148	H	-1.055923	0.129893	-0.256688
H149	H	-1.054652	0.284470	-0.335613
H150	H	-0.933584	0.327442	-0.418519
H151	H	-0.813781	0.215834	-0.422502
H152	H	-0.815052	0.061257	-0.343577
H153	H	-1.031278	-0.482407	0.184882
C154	C	-0.932230	-0.207528	-0.491433
C155	C	-0.863411	-0.271682	-0.493725
C156	C	-0.864162	-0.360511	-0.448379
C157	C	-0.933733	-0.385185	-0.400740
C158	C	-1.002558	-0.321029	-0.398446
C159	C	-1.001806	-0.232201	-0.443792
H160	H	-0.811906	-0.253418	-0.528992
H161	H	-0.813213	-0.408003	-0.450078
H162	H	-0.934289	-0.450941	-0.367173
H163	H	-1.054063	-0.339293	-0.363179
H164	H	-1.052755	-0.184708	-0.442093
H165	H	-0.173952	0.071980	0.102822
H166	H	-1.066079	-0.494272	0.079140
H167	H	-0.964999	-0.652531	-0.024003
H168	H	-0.323563	0.060965	0.105308
H169	H	-0.932106	0.119527	-0.503214
H170	H	-0.693956	0.108495	0.111502
H171	H	-0.929607	0.108521	-0.652839
H172	H	-0.938186	-0.232006	-0.132833
