data_functionalizedCrystal
_audit_creation_method	'MofGen! by Chris Wilmer'
_symmetry_space_group_name_H-M	'P1'
_symmetry_Int_Tables_number	1
_symmetry_cell_setting	triclinic
loop_
_symmetry_equiv_pos_as_xyz
  x,y,z
_cell_length_a	14.908558
_cell_length_b	15.299816
_cell_length_c	14.908308
_cell_angle_alpha	103.454544
_cell_angle_beta	90.175599
_cell_angle_gamma	77.678466
loop_
_atom_site_label
_atom_site_type_symbol
_atom_site_fract_x
_atom_site_fract_y
_atom_site_fract_z
Zn1	Zn	1.423320	-0.480257	-0.675265
Zn2	Zn	1.923320	0.019743	-0.175265
Zn3	Zn	1.455547	-0.625813	-0.551483
Zn4	Zn	1.955547	-0.125813	-0.051483
Zn5	Zn	1.278763	-0.462579	-0.513036
Zn6	Zn	1.778763	0.037421	-0.013036
Zn7	Zn	1.296397	-0.624717	-0.692936
Zn8	Zn	1.796397	-0.124717	-0.192936
O9	O	1.363507	-0.548341	-0.608180
O10	O	1.863507	-0.048341	-0.108180
O11	O	1.554698	-0.507422	-0.667539
O12	O	2.054698	-0.007422	-0.167539
O13	O	1.438204	-0.597220	-0.419291
O14	O	1.938204	-0.097220	0.080709
O15	O	1.277072	-0.336154	-0.511070
O16	O	1.777072	0.163846	-0.011070
O17	O	1.578375	-0.614361	-0.576598
O18	O	2.078375	-0.114361	-0.076598
O19	O	1.383277	-0.349142	-0.630259
O20	O	1.883277	0.150858	-0.130259
O21	O	1.308322	-0.477293	-0.391044
O22	O	1.808322	0.022707	0.108956
O23	O	1.154000	-0.476230	-0.528205
O24	O	1.654000	0.023770	-0.028205
O25	O	1.307126	-0.612493	-0.817684
O26	O	1.807126	-0.112493	-0.317684
O27	O	1.166955	-0.595352	-0.660377
O28	O	1.666955	-0.095352	-0.160377
O29	O	1.400376	-0.506359	-0.804701
O30	O	1.900376	-0.006359	-0.304701
O31	O	1.455302	-0.754438	-0.593733
O32	O	1.955302	-0.254438	-0.093733
O33	O	1.338375	-0.753633	-0.697658
O34	O	1.838375	-0.253633	-0.197658
C35	C	1.127521	-0.533755	-0.592037
C36	C	1.627521	-0.033755	-0.092037
C37	C	1.026568	-0.527538	-0.585157
C38	C	1.526568	-0.027538	-0.085157
C39	C	0.877489	-0.456674	-0.506724
C40	C	1.377489	0.043326	-0.006724
C41	C	0.972343	-0.462511	-0.513184
C42	C	1.472343	0.037489	-0.013184
C43	C	0.985932	-0.586731	-0.650676
C44	C	1.485932	-0.086731	-0.150676
C45	C	0.891078	-0.580894	-0.644215
C46	C	1.391078	-0.080894	-0.144215
C47	C	0.836860	-0.515865	-0.572237
C48	C	1.336860	-0.015865	-0.072237
C49	C	0.742005	-0.510033	-0.565773
C50	C	1.242005	-0.010033	-0.065773
C51	C	0.755596	-0.634248	-0.703268
C52	C	1.255596	-0.134248	-0.203268
C53	C	0.850449	-0.640085	-0.709728
C54	C	1.350449	-0.140085	-0.209728
C55	C	1.402273	-0.787427	-0.651806
C56	C	1.902273	-0.287427	-0.151806
C57	C	1.418939	-0.889715	-0.670506
C58	C	1.918939	-0.389715	-0.170506
C59	C	1.244973	-1.151307	-0.474879
C60	C	1.744973	-0.651307	0.025121
C61	C	1.229310	-1.055201	-0.457312
C62	C	1.729310	-0.555201	0.042688
C63	C	1.276716	-1.013825	-0.510609
C64	C	1.776716	-0.513825	-0.010609
C65	C	1.339788	-1.068563	-0.581476
C66	C	1.839788	-0.568563	-0.081476
C67	C	1.355447	-1.164678	-0.599050
C68	C	1.855447	-0.664678	-0.099050
C69	C	1.387190	-1.027196	-0.634780
C70	C	1.887190	-0.527196	-0.134780
C71	C	1.450262	-1.081935	-0.705647
C72	C	1.950262	-0.581935	-0.205647
C73	C	1.465919	-1.178040	-0.723217
C74	C	1.965919	-0.678040	-0.223217
C75	C	1.418513	-1.219416	-0.669921
C76	C	1.918513	-0.719416	-0.169921
C77	C	1.371531	-0.931082	-0.617206
C78	C	1.871531	-0.431082	-0.117206
C79	C	1.482005	-0.944453	-0.741377
C80	C	1.982005	-0.444453	-0.241377
C81	C	1.497668	-1.040558	-0.758944
C82	C	1.997668	-0.540558	-0.258944
C83	C	1.600414	-0.562986	-0.624386
C84	C	2.100414	-0.062986	-0.124386
C85	C	1.701370	-0.569226	-0.631292
C86	C	2.201370	-0.069226	-0.131292
C87	C	1.352123	-0.561276	-0.845067
C88	C	1.852123	-0.061276	-0.345067
C89	C	1.347272	-0.566788	-0.946014
C90	C	1.847272	-0.066788	-0.446014
C91	C	1.324613	-0.308325	-0.564404
C92	C	1.824613	0.191675	-0.064404
C93	C	1.308039	-0.206045	-0.545750
C94	C	1.808039	0.293955	-0.045750
C95	C	1.435251	-0.466607	-1.122183
C96	C	1.935251	0.033393	-0.622183
C97	C	1.430696	-0.471783	-1.217032
C98	C	1.930696	0.028217	-0.717032
C99	C	1.333600	-0.582310	-1.230560
C100	C	1.833600	-0.082310	-0.730560
C101	C	1.338156	-0.577135	-1.135712
C102	C	1.838156	-0.077135	-0.635712
C103	C	1.388984	-0.519282	-1.081526
C104	C	1.888984	-0.019282	-0.581526
C105	C	1.393545	-0.514111	-0.986677
C106	C	1.893545	-0.014111	-0.486677
C107	C	1.296444	-0.624633	-1.000207
C108	C	1.796444	-0.124633	-0.500207
C109	C	1.291888	-0.629809	-1.095055
C110	C	1.791888	-0.129809	-0.595055
C111	C	1.374888	-0.535394	-0.372206
C112	C	1.874888	-0.035394	0.127794
C113	C	1.379873	-0.529634	-0.271224
C114	C	1.879873	-0.029634	0.228776
H115	H	0.722506	-0.682446	-0.756613
H116	H	1.222506	-0.182446	-0.256613
F117	F	1.564791	-1.098826	-0.834365
F118	F	2.064791	-0.598826	-0.334365
H119	H	1.292218	-0.629411	-1.274694
H120	H	1.792218	-0.129411	-0.774694
F121	F	1.532460	-0.900423	-0.798104
F122	F	2.032460	-0.400423	-0.298104
F123	F	1.237794	-0.691375	-1.152732
F124	F	1.737794	-0.191375	-0.652732
F125	F	1.043652	-0.655943	-0.727266
F126	F	1.543652	-0.155943	-0.227266
F127	F	1.247209	-0.680706	-0.956933
F128	F	1.747209	-0.180706	-0.456933
H129	H	0.697862	-0.457082	-0.507165
H130	H	1.197862	0.042918	-0.007165
F131	F	0.819786	-0.387476	-0.430112
F132	F	1.319786	0.112524	0.069888
F133	F	1.304407	-0.872836	-0.541785
F134	F	1.804407	-0.372836	-0.041785
F135	F	1.015579	-0.399510	-0.443459
F136	F	1.515579	0.100490	0.056541
H137	H	0.894606	-0.693028	-0.768333
H138	H	1.394606	-0.193028	-0.268333
H139	H	1.263960	-0.935571	-0.496300
H140	H	1.763960	-0.435571	0.003700
H141	H	1.206377	-1.185005	-0.431497
H142	H	1.706377	-0.685005	0.068503
F143	F	1.162179	-0.996952	-0.381900
F144	F	1.662179	-0.496952	0.118100
F145	F	1.479938	-0.415718	-1.260298
F146	F	1.979938	0.084282	-0.760298
H147	H	1.476643	-0.419506	-1.078066
H148	H	1.976643	0.080494	-0.578066
F149	F	1.533030	-1.236294	-0.798655
F150	F	2.033030	-0.736294	-0.298655
F151	F	1.435337	-1.321704	-0.688475
F152	F	1.935337	-0.821704	-0.188475
H153	H	1.434933	-0.467006	-0.942561
H154	H	1.934933	0.032994	-0.442561
