data_functionalizedCrystal
_audit_creation_method	'MofGen! by Chris Wilmer'
_symmetry_space_group_name_H-M	'P1'
_symmetry_Int_Tables_number	1
_symmetry_cell_setting	triclinic
loop_
_symmetry_equiv_pos_as_xyz
  x,y,z
_cell_length_a	14.908178
_cell_length_b	18.101398
_cell_length_c	14.908308
_cell_angle_alpha	93.287506
_cell_angle_beta	89.778379
_cell_angle_gamma	93.309983
loop_
_atom_site_label
_atom_site_type_symbol
_atom_site_fract_x
_atom_site_fract_y
_atom_site_fract_z
Zn1	Zn	-0.387410	1.090740	-0.487504
Zn2	Zn	-0.529119	1.091487	-0.328464
Zn3	Zn	-0.378759	0.974431	-0.337185
Zn4	Zn	-0.537724	0.960170	-0.478801
O5	O	-0.458253	1.029207	-0.407988
O6	O	-0.406227	1.194471	-0.466399
O7	O	-0.501952	1.082240	-0.203795
O8	O	-0.254073	0.995515	-0.364416
O9	O	-0.510340	1.195020	-0.349554
O10	O	-0.260429	1.080966	-0.474855
O11	O	-0.391483	0.996239	-0.210202
O12	O	-0.399827	0.868907	-0.355978
O13	O	-0.525006	0.971210	-0.605781
O14	O	-0.516618	0.858429	-0.460023
O15	O	-0.414571	1.067138	-0.612175
O16	O	-0.656094	1.068412	-0.341115
O17	O	-0.662416	0.971934	-0.451567
C18	C	-0.458219	0.836797	-0.408003
C19	C	-0.458227	0.754482	-0.408029
C20	C	-0.458277	0.455390	-0.407989
C21	C	-0.532075	0.480150	-0.473089
C22	C	-0.531873	0.565764	-0.473385
C23	C	-0.458253	0.603773	-0.408009
C24	C	-0.365033	0.575630	-0.439370
C25	C	-0.365480	0.489942	-0.439838
C26	C	-0.476855	0.490638	-0.311409
C27	C	-0.478963	0.576170	-0.311797
C28	C	-0.458233	0.687633	-0.408019
C29	C	-0.458291	0.371530	-0.407981
C30	C	-0.691884	1.018726	-0.394470
C31	C	-0.791834	1.014309	-0.388717
C32	C	-0.986125	1.094911	-0.493029
C33	C	-1.080037	1.090762	-0.487627
C34	C	-1.073572	1.001860	-0.372515
C35	C	-0.979660	1.006009	-0.377917
C36	C	-0.935940	1.052536	-0.438176
C37	C	-0.842026	1.056688	-0.443573
C38	C	-0.835562	0.967782	-0.328466
C39	C	-0.929474	0.963634	-0.323063
C40	C	-0.223711	1.039748	-0.421579
C41	C	-0.123764	1.044240	-0.427371
C42	C	-0.471713	1.017500	-0.642515
C43	C	-0.477449	1.012511	-0.742457
C44	C	-0.458289	1.222368	-0.407974
C45	C	-0.458304	1.304681	-0.407968
C46	C	-0.373210	1.103026	-0.936918
C47	C	-0.378596	1.098341	-1.030822
C48	C	-0.493603	0.998453	-1.024171
C49	C	-0.488216	1.003138	-0.930267
C50	C	-0.428019	1.055427	-0.886643
C51	C	-0.422638	1.060115	-0.792737
C52	C	-0.537639	0.960224	-0.786088
C53	C	-0.543026	0.955539	-0.879992
C54	C	-0.444781	1.040914	-0.174378
C55	C	-0.438791	1.046057	-0.074451
H56	H	-0.601172	0.584451	-0.453102
C57	C	-0.306997	1.160547	-0.888930
N58	N	-0.257124	1.203872	-0.852787
C59	C	-0.318304	1.150706	-1.086120
N60	N	-0.272890	1.190150	-1.127771
H61	H	-0.582271	0.921467	-0.745145
H62	H	-1.120895	1.125264	-0.532299
C63	C	-0.559792	0.940923	-1.072174
N64	N	-0.609641	0.897585	-1.108331
C65	C	-0.977574	0.912506	-0.256726
N66	N	-1.013800	0.874015	-0.206737
H67	H	-0.950528	1.132801	-0.542088
C68	C	-0.609233	0.898019	-0.927989
N69	N	-0.659101	0.854694	-0.964139
H70	H	-1.109185	0.963977	-0.323459
H71	H	-0.601614	0.457208	-0.452973
H72	H	-0.373623	1.102692	-0.757221
C73	C	-0.516296	0.447295	-0.569050
N74	N	-0.504407	0.422548	-0.641328
C75	C	-0.411019	0.611575	-0.242154
N76	N	-0.359835	0.638239	-0.189702
C77	C	-0.515886	0.589645	-0.569916
N78	N	-0.503855	0.607630	-0.642629
H79	H	-0.308795	0.600813	-0.393674
H80	H	-0.547532	0.594356	-0.288245
C81	C	-0.404152	0.469804	-0.245787
N82	N	-0.349391	0.454106	-0.196367
C83	C	-0.780350	0.921167	-0.268122
N84	N	-0.738764	0.886059	-0.222672
H85	H	-0.806430	1.094575	-0.492636
C86	C	-0.289073	0.468434	-0.378985
N87	N	-0.231519	0.452237	-0.333156
C88	C	-0.342321	0.601209	-0.533984
N89	N	-0.325221	0.620473	-0.605249
C90	C	-0.566725	0.458951	-0.274320
N91	N	-0.634420	0.435083	-0.246394
C92	C	-0.343307	0.459489	-0.535436
N93	N	-0.326599	0.436555	-0.607442
