data_functionalizedCrystal
_audit_creation_method	'MofGen! by Chris Wilmer'
_symmetry_space_group_name_H-M	'P1'
_symmetry_Int_Tables_number	1
_symmetry_cell_setting	triclinic
loop_
_symmetry_equiv_pos_as_xyz
  x,y,z
_cell_length_a	13.032831
_cell_length_b	25.639239
_cell_length_c	13.033109
_cell_angle_alpha	97.152107
_cell_angle_beta	76.665514
_cell_angle_gamma	82.842759
loop_
_atom_site_label
_atom_site_type_symbol
_atom_site_fract_x
_atom_site_fract_y
_atom_site_fract_z
Zn1	Zn	1.699833	-0.367536	-0.806318
Zn2	Zn	1.677108	-0.442245	-0.628682
Zn3	Zn	1.499677	-0.342107	-0.606217
Zn4	Zn	1.522123	-0.442199	-0.783726
O5	O	1.599685	-0.398522	-0.706236
O6	O	1.845447	-0.388108	-0.801610
O7	O	1.634667	-0.418339	-0.477073
O8	O	1.526345	-0.272326	-0.632814
O9	O	1.828751	-0.442996	-0.671102
O10	O	1.673399	-0.291009	-0.779827
O11	O	1.504309	-0.344768	-0.460568
O12	O	1.354026	-0.344723	-0.610908
O13	O	1.564601	-0.442917	-0.935352
O14	O	1.370518	-0.418260	-0.741323
O15	O	1.695164	-0.388063	-0.951950
O16	O	1.656433	-0.515393	-0.649197
O17	O	1.542566	-0.515359	-0.763107
C18	C	1.323735	-0.378728	-0.671227
C19	C	1.205685	-0.370274	-0.656275
C20	C	1.161229	-0.402934	-0.714039
C21	C	1.039219	-0.394197	-0.698587
C22	C	1.599501	-0.534348	-0.706165
C23	C	1.599523	-0.592465	-0.706182
C24	C	1.659168	-0.952867	-0.647061
C25	C	1.659211	-1.007476	-0.647081
O26	O	1.709731	-1.035729	-0.596737
N27	N	1.599881	-1.034779	-0.706330
C28	C	1.540513	-1.007473	-0.765573
O29	O	1.490053	-1.035711	-0.815971
C30	C	1.540477	-0.952866	-0.765558
C31	C	1.599802	-0.925564	-0.706297
C32	C	1.718489	-0.925566	-0.587805
C33	C	1.718444	-0.870961	-0.587784
C34	C	1.659078	-0.843658	-0.647020
C35	C	1.599757	-0.870960	-0.706276
C36	C	1.481115	-0.925561	-0.824806
C37	C	1.481085	-0.870951	-0.824788
C38	C	1.540410	-0.843650	-0.765526
C39	C	1.540346	-0.789052	-0.765490
N40	N	1.599676	-0.761749	-0.706241
C41	C	1.659042	-0.789052	-0.647006
C42	C	1.540595	-1.122150	-0.765599
C43	C	1.540625	-1.176755	-0.765608
C44	C	1.659324	-1.176754	-0.647117
C45	C	1.659288	-1.122148	-0.647103
C46	C	1.599925	-1.094847	-0.706350
C47	C	1.658943	-0.674378	-0.646966
C48	C	1.658889	-0.619768	-0.646947
C49	C	1.540194	-0.619774	-0.765441
C50	C	1.540243	-0.674378	-0.765456
C51	C	1.599625	-0.701679	-0.706216
O52	O	1.489856	-0.760764	-0.815812
O53	O	1.709504	-0.760808	-0.596626
C54	C	1.876714	-0.418394	-0.741382
C55	C	1.994767	-0.426862	-0.756360
C56	C	1.634921	-0.418322	-0.983267
C57	C	1.649937	-0.426759	-1.101321
C58	C	1.599903	-0.262169	-0.706334
C59	C	1.599995	-0.204063	-0.706376
C60	C	1.592133	-0.394120	-1.145787
C61	C	1.607650	-0.402840	-1.267801
C62	C	1.564648	-0.378766	-0.430291
C63	C	1.549838	-0.370195	-0.312263
H64	H	1.707300	-0.696600	-0.598729
H65	H	1.531152	-0.359722	-1.093524
H66	H	1.668630	-0.437242	-1.320060
H67	H	1.766755	-0.848736	-0.539532
C68	C	1.476319	-1.092504	-0.830069
C69	C	1.545038	-1.070300	-0.905834
C70	C	1.485869	-1.042995	-0.965253
H71	H	1.424880	-1.064975	-0.783651
H72	H	1.441018	-1.116578	-0.865418
H73	H	1.580320	-1.046228	-0.870488
H74	H	1.596477	-1.097818	-0.952275
H75	H	1.450569	-1.067070	-1.000601
H76	H	1.434432	-1.015469	-0.918827
H77	H	1.532487	-1.027931	-1.016672
C78	C	1.475559	-0.590133	-0.829612
C79	C	1.367540	-0.594265	-0.793078
C80	C	1.307973	-0.566963	-0.852168
H81	H	1.500007	-0.605246	-0.902973
H82	H	1.483964	-0.553691	-0.821099
H83	H	1.359140	-0.630700	-0.801600
H84	H	1.343060	-0.579150	-0.719725
H85	H	1.316379	-0.530521	-0.843655
H86	H	1.332431	-0.582078	-0.925526
H87	H	1.234675	-0.569758	-0.827382
C88	C	1.723815	-1.206306	-0.582699
C89	C	1.775750	-1.170711	-0.530779
C90	C	1.835152	-1.197914	-0.471421
H91	H	1.775321	-1.233799	-0.629141
H92	H	1.677365	-1.221404	-0.531194
H93	H	1.822196	-1.155620	-0.582279
H94	H	1.724269	-1.143217	-0.484319
H95	H	1.788703	-1.213012	-0.419915
H96	H	1.886652	-1.225406	-0.517870
H97	H	1.870389	-1.173766	-0.436178
C98	C	1.064267	-0.472789	-0.837654
C99	C	0.999608	-0.501218	-0.887967
C100	C	1.063594	-0.543524	-0.962869
H101	H	1.102345	-0.495758	-0.802498
H102	H	1.113447	-0.459230	-0.889507
H103	H	0.950447	-0.514777	-0.836122
H104	H	0.961530	-0.478264	-0.923144
H105	H	1.112774	-0.529965	-1.014722
H106	H	1.101669	-0.566489	-0.927704
H107	H	1.019734	-0.562815	-0.997022
H108	H	1.488855	-0.335794	-1.260006
H109	H	1.710912	-0.461159	-1.153583
H110	H	1.153417	-0.335843	-0.595386
C111	C	1.783161	-0.955135	-0.523571
C112	C	1.891151	-0.950949	-0.560122
C113	C	1.950770	-0.978162	-0.500957
H114	H	1.774866	-0.991586	-0.531983
H115	H	1.758654	-0.939974	-0.450225
H116	H	1.915651	-0.966112	-0.633450
H117	H	1.899479	-0.914505	-0.551707
H118	H	1.926262	-0.963001	-0.427611
H119	H	1.942465	-1.014612	-0.509374
H120	H	2.024045	-0.975322	-0.525742
C121	C	1.231057	-0.448772	-0.795316
C122	C	1.303471	-0.428625	-0.871499
C123	C	1.367820	-0.470836	-0.946381
H124	H	1.187481	-0.468159	-0.829670
H125	H	1.269180	-0.471684	-0.760075
H126	H	1.265351	-0.405722	-0.906736
H127	H	1.347070	-0.409243	-0.837177
H128	H	1.405944	-0.493748	-0.911140
H129	H	1.324235	-0.490220	-0.980727
H130	H	1.416967	-0.457172	-0.998074
C131	C	0.969352	-0.348338	-0.617388
C132	C	0.862221	-0.348804	-0.618170
C133	C	0.797827	-0.306574	-0.543370
H134	H	0.989366	-0.315593	-0.635246
H135	H	0.978315	-0.352127	-0.548247
H136	H	0.853264	-0.345010	-0.687295
H137	H	0.842174	-0.381539	-0.600300
H138	H	0.806790	-0.310363	-0.474229
H139	H	0.817851	-0.273832	-0.561235
H140	H	0.725132	-0.306887	-0.543883
C141	C	1.476178	-1.206303	-0.830051
C142	C	1.424204	-1.170700	-0.881938
C143	C	1.364842	-1.197901	-0.941332
H144	H	1.424697	-1.221419	-0.783636
H145	H	1.522658	-1.233786	-0.881578
H146	H	1.377728	-1.143227	-0.830418
H147	H	1.475660	-1.155582	-0.928372
H148	H	1.411321	-1.225384	-0.992858
H149	H	1.313366	-1.213016	-0.894909
H150	H	1.329578	-1.173749	-0.976552
C151	C	1.416562	-0.955203	-0.888966
C152	C	1.340871	-0.977411	-0.820172
C153	C	1.281377	-1.004714	-0.879244
H154	H	1.462945	-0.982729	-0.940439
H155	H	1.381147	-0.931127	-0.924218
H156	H	1.376284	-1.001485	-0.784938
H157	H	1.294464	-0.949896	-0.768700
H158	H	1.245962	-0.980638	-0.914496
H159	H	1.327768	-1.032238	-0.930714
H160	H	1.230007	-1.019782	-0.832575
C161	C	1.723417	-0.590226	-0.582579
C162	C	1.775439	-0.625833	-0.530735
C163	C	1.834901	-0.598643	-0.471445
H164	H	1.677027	-0.562734	-0.531029
H165	H	1.774872	-0.575128	-0.629087
H166	H	1.723990	-0.640923	-0.484230
H167	H	1.821847	-0.653326	-0.582259
H168	H	1.886356	-0.583544	-0.517953
H169	H	1.788503	-0.571151	-0.419901
H170	H	1.870213	-0.622798	-0.436269
H171	H	1.432746	-0.848726	-0.873037
C172	C	1.476007	-0.704108	-0.829871
C173	C	1.544781	-0.744595	-0.905615
C174	C	1.485652	-0.771995	-0.964972
H175	H	1.440629	-0.680090	-0.865242
H176	H	1.424632	-0.719256	-0.783378
H177	H	1.596138	-0.729447	-0.952102
H178	H	1.580161	-0.768624	-0.870273
H179	H	1.434276	-0.787144	-0.918479
H180	H	1.450276	-0.747974	-1.000336
H181	H	1.532304	-0.799472	-1.016364
H182	H	1.707596	-1.099922	-0.598848
