data_functionalizedCrystal
_audit_creation_method	'MofGen! by Chris Wilmer'
_symmetry_space_group_name_H-M	'P1'
_symmetry_Int_Tables_number	1
_symmetry_cell_setting	triclinic
loop_
_symmetry_equiv_pos_as_xyz
  x,y,z
_cell_length_a	11.169417
_cell_length_b	19.077068
_cell_length_c	11.169409
_cell_angle_alpha	92.259065
_cell_angle_beta	89.980176
_cell_angle_gamma	92.327792
loop_
_atom_site_label
_atom_site_type_symbol
_atom_site_fract_x
_atom_site_fract_y
_atom_site_fract_z
Zn1	Zn	1.815630	-0.280126	-0.697665
Zn2	Zn	2.315630	0.219874	-0.197665
Zn3	Zn	1.807395	-0.397846	-0.505018
Zn4	Zn	2.307395	0.102154	-0.005018
Zn5	Zn	1.614913	-0.280169	-0.497002
Zn6	Zn	2.114913	0.219831	0.002998
Zn7	Zn	1.606803	-0.397789	-0.705659
Zn8	Zn	2.106803	0.102211	-0.205659
O9	O	1.711185	-0.338983	-0.601336
O10	O	2.211185	0.161017	-0.101336
O11	O	1.982486	-0.295748	-0.672119
O12	O	2.482486	0.204252	-0.172119
O13	O	1.781809	-0.382278	-0.336008
O14	O	2.281809	0.117722	0.163992
O15	O	1.648378	-0.181673	-0.516921
O16	O	2.148378	0.318327	-0.016921
O17	O	1.976436	-0.382237	-0.530582
O18	O	2.476436	0.117763	-0.030582
O19	O	1.795844	-0.181642	-0.664347
O20	O	2.295844	0.318358	-0.164347
O21	O	1.640393	-0.295821	-0.330119
O22	O	2.140393	0.204179	0.169881
O23	O	1.445887	-0.295766	-0.524672
O24	O	1.945887	0.204234	-0.024672
O25	O	1.634556	-0.382139	-0.872546
O26	O	2.134556	0.117861	-0.372546
O27	O	1.439929	-0.382181	-0.677971
O28	O	1.939929	0.117819	-0.177971
O29	O	1.787981	-0.295693	-0.866672
O30	O	2.287981	0.204307	-0.366672
O31	O	1.773945	-0.496329	-0.538333
O32	O	2.273945	0.003671	-0.038333
O33	O	1.626571	-0.496287	-0.685743
O34	O	2.126571	0.003713	-0.185743
C35	C	1.399361	-0.338972	-0.601320
C36	C	1.899361	0.161028	-0.101320
C37	C	1.265960	-0.338984	-0.601343
C38	C	1.765960	0.161016	-0.101343
C39	C	1.698517	-0.521846	-0.613802
C40	C	2.198517	-0.021846	-0.113802
C41	C	1.693208	-0.600075	-0.619175
C42	C	2.193208	-0.100075	-0.119175
C43	C	1.767503	-0.636826	-0.545014
C44	C	2.267503	-0.136826	-0.045014
C45	C	1.762516	-0.710331	-0.550075
C46	C	2.262516	-0.210331	-0.050075
C47	C	1.683227	-0.747084	-0.629291
C48	C	2.183227	-0.247084	-0.129291
C49	C	1.608929	-0.710328	-0.703460
C50	C	2.108929	-0.210328	-0.203460
C51	C	1.613923	-0.636824	-0.698404
C52	C	2.113923	-0.136824	-0.198404
C53	C	1.660064	-0.966916	-0.652640
C54	C	2.160064	-0.466916	-0.152640
C55	C	1.655073	-1.040425	-0.657687
C56	C	2.155073	-0.540425	-0.157687
C57	C	1.808662	-1.040424	-0.504303
C58	C	2.308662	-0.540424	-0.004303
C59	C	1.813643	-0.966918	-0.499250
C60	C	2.313643	-0.466918	0.000750
C61	C	1.739350	-0.930169	-0.573423
C62	C	2.239350	-0.430169	-0.073423
N63	N	1.678125	-0.822218	-0.634463
N64	N	2.178125	-0.322218	-0.134463
N65	N	1.744459	-0.855036	-0.568256
N66	N	2.244459	-0.355036	-0.068256
C67	C	2.024226	-0.338994	-0.601353
C68	C	2.524226	0.161006	-0.101353
C69	C	2.157626	-0.338999	-0.601360
C70	C	2.657626	0.161001	-0.101360
C71	C	1.711282	-0.338905	-0.914373
C72	C	2.211282	0.161095	-0.414373
C73	C	1.711324	-0.338871	-1.047771
C74	C	2.211324	0.161129	-0.547771
C75	C	1.723935	-0.155406	-0.588848
C76	C	2.223935	0.344594	-0.088848
C77	C	1.729368	-0.077176	-0.583526
C78	C	2.229368	0.422824	-0.083526
C79	C	1.711160	-0.339010	-0.289513
C80	C	2.211160	0.160990	0.210487
C81	C	1.711365	-0.338845	-0.156103
C82	C	2.211365	0.161155	0.343897
H83	H	1.832062	-0.606907	-0.480503
H84	H	2.332062	-0.106907	0.019497
N85	N	1.842648	-0.749971	-0.470088
N86	N	2.342648	-0.249971	0.029912
H87	H	1.893628	-0.715535	-0.419132
H88	H	2.393628	-0.215535	0.080868
H89	H	1.791743	-0.780521	-0.416610
H90	H	2.291743	-0.280521	0.083390
H91	H	1.590521	-1.070347	-0.722215
H92	H	2.090521	-0.570347	-0.222215
N93	N	1.899179	-0.927279	-0.413827
N94	N	2.399179	-0.427279	0.086173
H95	H	1.945497	-0.961715	-0.367620
H96	H	2.445497	-0.461715	0.132380
H97	H	1.956762	-0.896736	-0.460649
H98	H	2.456762	-0.396736	0.039351
H99	H	1.544376	-0.740258	-0.767964
H100	H	2.044376	-0.240258	-0.267964
H101	H	1.553426	-0.606902	-0.758795
H102	H	2.053426	-0.106902	-0.258795
N103	N	1.888784	-1.080060	-0.424301
N104	N	2.388784	-0.580060	0.075699
H105	H	1.873591	-1.132201	-0.439518
H106	H	2.373591	-0.632201	0.060482
H107	H	1.975367	-1.067162	-0.442163
H108	H	2.475367	-0.567162	0.057837
H109	H	1.599569	-0.937001	-0.713032
H110	H	2.099569	-0.437001	-0.213032
