data_functionalizedCrystal
_audit_creation_method	'MofGen! by Chris Wilmer'
_symmetry_space_group_name_H-M	'P1'
_symmetry_Int_Tables_number	1
_symmetry_cell_setting	triclinic
loop_
_symmetry_equiv_pos_as_xyz
  x,y,z
_cell_length_a	19.805407
_cell_length_b	18.050589
_cell_length_c	19.805399
_cell_angle_alpha	89.977706
_cell_angle_beta	89.980427
_cell_angle_gamma	90.028221
loop_
_atom_site_label
_atom_site_type_symbol
_atom_site_fract_x
_atom_site_fract_y
_atom_site_fract_z
Zn1	Zn	1.034727	-0.295677	-0.382745
Zn2	Zn	1.034638	-0.419869	-0.269567
Zn3	Zn	0.921542	-0.295697	-0.269569
Zn4	Zn	0.921502	-0.419829	-0.382713
O5	O	0.978102	-0.357768	-0.326148
O6	O	1.129432	-0.312159	-0.367743
O7	O	1.019616	-0.403422	-0.174850
O8	O	0.936610	-0.191770	-0.284596
O9	O	1.129367	-0.403402	-0.284592
O10	O	1.019767	-0.191755	-0.367746
O11	O	0.936524	-0.312194	-0.174852
O12	O	0.826820	-0.312156	-0.284566
O13	O	0.936542	-0.403335	-0.477434
O14	O	0.826791	-0.403355	-0.367693
O15	O	1.019728	-0.312121	-0.477457
O16	O	1.019577	-0.523788	-0.284562
O17	O	0.936456	-0.523759	-0.367690
C18	C	0.802246	-0.357754	-0.326127
C19	C	0.727014	-0.357766	-0.326133
C20	C	0.978021	-0.550720	-0.326137
C21	C	0.978048	-0.633266	-0.326155
C22	C	0.691673	-0.405325	-0.369347
C23	C	0.620984	-0.405326	-0.369357
C24	C	0.585639	-0.357771	-0.326148
C25	C	0.620985	-0.310207	-0.282933
C26	C	0.691673	-0.310203	-0.282927
C27	C	0.335912	-0.310224	-0.282955
C28	C	0.265220	-0.310233	-0.282962
C29	C	0.265224	-0.405347	-0.369385
C30	C	0.335911	-0.405342	-0.369379
C31	C	0.371251	-0.357776	-0.326166
C32	C	0.447900	-0.357774	-0.326157
C33	C	0.508992	-0.357776	-0.326153
C34	C	0.932891	-0.832728	-0.371344
C35	C	0.916392	-0.882167	-0.309581
C36	C	0.978114	-0.784396	-0.326164
C37	C	0.994646	-0.882039	-0.387934
C38	C	0.978177	-0.930381	-0.326178
C39	C	0.961583	-0.832748	-0.264368
C40	C	1.039865	-0.832616	-0.342762
C41	C	1.023390	-0.882033	-0.280957
C42	C	0.978076	-0.700298	-0.326157
C43	C	0.978215	-1.014478	-0.326178
C44	C	1.154645	-0.357783	-0.326171
C45	C	1.229877	-0.357789	-0.326180
C46	C	0.978140	-0.357721	-0.502691
C47	C	0.978156	-0.357701	-0.577923
C48	C	0.978203	-0.164062	-0.326175
C49	C	0.978246	-0.081517	-0.326186
C50	C	1.021472	-0.310204	-0.613280
C51	C	1.021479	-0.310182	-0.683969
C52	C	0.978173	-0.357662	-0.719299
C53	C	0.934852	-0.405162	-0.683937
C54	C	0.934843	-0.405180	-0.613250
C55	C	0.934891	-0.405093	-0.969010
C56	C	0.934905	-0.405074	-1.039702
C57	C	1.021527	-0.310096	-1.039729
C58	C	1.021518	-0.310113	-0.969042
C59	C	0.978195	-0.357609	-0.933686
C60	C	0.978187	-0.357631	-0.857038
C61	C	0.978184	-0.357645	-0.795946
C62	C	0.978103	-0.357761	-0.150292
C63	C	0.978218	-0.357572	-0.075061
H64	H	0.592212	-0.444054	-0.404545
C65	C	0.374791	-0.457652	-0.416909
C66	C	0.423423	-0.425542	-0.470092
C67	C	0.462303	-0.477850	-0.517624
C68	C	0.452550	-0.562269	-0.511975
C69	C	0.403916	-0.594384	-0.458790
C70	C	0.365036	-0.542075	-0.411257
H71	H	0.430645	-0.363046	-0.474276
H72	H	0.498305	-0.454076	-0.556995
H73	H	0.481331	-0.600990	-0.547161
H74	H	0.396694	-0.656879	-0.454606
H75	H	0.329034	-0.565849	-0.371886
H76	H	0.236441	-0.444075	-0.404574
C77	C	1.069154	-0.257883	-0.930180
C78	C	1.116800	-0.205631	-0.969072
C79	C	1.164436	-0.153398	-0.930210
C80	C	1.164426	-0.153417	-0.852457
C81	C	1.116779	-0.205670	-0.813561
C82	C	1.069143	-0.257903	-0.852422
H83	H	1.116808	-0.205616	-1.026633
H84	H	1.199707	-0.114717	-0.959004
H85	H	1.199689	-0.114751	-0.823690
H86	H	1.116770	-0.205686	-0.756000
H87	H	1.033872	-0.296585	-0.823629
C88	C	0.582105	-0.257893	-0.235407
C89	C	0.591856	-0.173475	-0.241068
C90	C	0.552976	-0.121160	-0.193542
C91	C	0.504344	-0.153263	-0.140355
C92	C	0.494591	-0.237685	-0.134693
C93	C	0.533471	-0.290000	-0.182218
H94	H	0.627858	-0.149706	-0.280442
H95	H	0.560197	-0.058664	-0.197734
H96	H	0.475563	-0.114536	-0.105174
H97	H	0.458588	-0.261454	-0.095319
H98	H	0.526250	-0.352496	-0.178026
H99	H	0.894591	-0.811078	-0.409498
H100	H	0.720447	-0.271471	-0.247741
C101	C	1.069111	-0.257973	-0.574421
C102	C	1.122230	-0.290168	-0.525833
C103	C	1.169869	-0.237934	-0.486976
C104	C	1.164389	-0.153506	-0.496707
C105	C	1.111268	-0.121307	-0.545297
C106	C	1.063629	-0.173541	-0.584154
H107	H	1.126289	-0.352671	-0.518628
H108	H	1.209193	-0.261770	-0.451007
H109	H	1.199654	-0.114839	-0.467943
H110	H	1.107209	-0.058804	-0.552502
H111	H	1.024305	-0.149704	-0.620124
H112	H	0.864201	-0.903948	-0.295555
H113	H	1.008603	-0.903691	-0.440167
C114	C	1.110355	-0.803187	-0.361750
C115	C	1.172052	-0.823718	-0.318314
C116	C	1.242542	-0.794287	-0.337310
C117	C	1.251337	-0.744325	-0.399743
C118	C	1.189638	-0.723792	-0.443182
C119	C	1.119148	-0.753222	-0.424186
H120	H	1.165543	-0.860704	-0.272094
H121	H	1.288215	-0.809488	-0.305153
H122	H	1.303518	-0.722539	-0.413805
H123	H	1.196147	-0.686805	-0.489402
H124	H	1.073475	-0.738022	-0.456343
C125	C	0.942650	-0.803626	-0.193782
C126	C	0.939093	-0.719621	-0.180738
C127	C	0.920162	-0.690498	-0.110154
C128	C	0.904788	-0.745380	-0.052614
C129	C	0.908344	-0.829390	-0.065656
C130	C	0.927276	-0.858513	-0.136240
H131	H	0.950475	-0.678990	-0.223334
H132	H	0.917529	-0.628308	-0.100499
H133	H	0.890774	-0.723821	-0.000363
H134	H	0.896963	-0.870022	-0.023060
H135	H	0.929908	-0.920703	-0.145895
H136	H	1.056801	-0.271419	-1.068525
H137	H	0.364678	-0.271497	-0.247763
C138	C	1.075085	-0.911114	-0.229292
C139	C	1.067492	-0.891488	-0.154012
C140	C	1.119180	-0.920576	-0.102345
C141	C	1.178462	-0.969289	-0.125958
C142	C	1.186058	-0.988918	-0.201242
C143	C	1.134370	-0.959830	-0.252909
H144	H	1.023605	-0.855425	-0.136528
H145	H	1.113557	-0.906045	-0.046614
H146	H	1.216725	-0.990822	-0.087711
H147	H	1.229945	-1.024981	-0.218726
H148	H	1.139993	-0.974360	-0.308640
C149	C	0.887260	-0.457300	-1.078567
C150	C	0.839603	-0.509541	-1.039679
C151	C	0.791960	-0.561764	-1.078545
C152	C	0.791976	-0.561745	-1.156298
C153	C	0.839635	-0.509501	-1.195190
C154	C	0.887277	-0.457279	-1.156325
H155	H	0.839590	-0.509557	-0.982118
H156	H	0.756680	-0.600438	-1.049754
H157	H	0.756708	-0.600403	-1.185068
H158	H	0.839648	-0.509485	-1.252751
H159	H	0.922558	-0.418604	-1.185116
H160	H	1.056753	-0.271506	-0.712754
H161	H	0.899624	-0.443779	-0.940232
H162	H	0.899589	-0.443819	-0.712708
H163	H	0.899563	-0.443850	-0.584463
H164	H	0.236444	-0.271504	-0.247777
C165	C	0.730550	-0.457636	-0.416878
C166	C	0.720793	-0.542054	-0.411227
C167	C	0.759668	-0.594366	-0.458761
C168	C	0.808299	-0.562259	-0.511946
C169	C	0.818059	-0.477836	-0.517598
C170	C	0.779184	-0.425525	-0.470065
H171	H	0.684790	-0.565826	-0.371855
H172	H	0.752443	-0.656861	-0.454576
H173	H	0.837077	-0.600982	-0.547133
H174	H	0.854061	-0.454065	-0.556971
H175	H	0.786408	-0.363030	-0.474249
