data_functionalizedCrystal
_audit_creation_method	'MofGen! by Chris Wilmer'
_symmetry_space_group_name_H-M	'P1'
_symmetry_Int_Tables_number	1
_symmetry_cell_setting	triclinic
loop_
_symmetry_equiv_pos_as_xyz
  x,y,z
_cell_length_a	19.288864
_cell_length_b	9.065218
_cell_length_c	18.366186
_cell_angle_alpha	89.995673
_cell_angle_beta	89.977106
_cell_angle_gamma	84.076066
loop_
_atom_site_label
_atom_site_type_symbol
_atom_site_fract_x
_atom_site_fract_y
_atom_site_fract_z
O1	O	0.922782	0.184031	-0.060781
O2	O	0.720714	0.208857	-0.060731
O3	O	0.825924	-0.018345	-0.060755
O4	O	0.817571	0.411233	-0.060756
O5	O	0.825906	-0.018356	0.060344
O6	O	0.720696	0.208846	0.060369
O7	O	0.922763	0.184020	0.060319
Zn8	Zn	0.821727	0.196431	0.079571
Zn9	Zn	0.821751	0.196446	-0.079983
O10	O	0.817553	0.411222	0.060343
C11	C	0.694822	0.208053	-0.000174
C12	C	0.617700	0.205655	-0.000155
C13	C	0.825112	-0.073309	-0.000206
C14	C	0.822712	-0.237067	-0.000209
C15	C	0.574039	0.338966	-0.000167
C16	C	0.501574	0.336713	-0.000175
C17	C	0.472774	0.201142	-0.000186
C18	C	0.516445	0.067812	-0.000170
C19	C	0.588908	0.070069	-0.000155
C20	C	0.363691	0.094571	-0.042637
C21	C	0.291229	0.092320	-0.042657
C22	C	0.249274	0.194176	-0.000230
C23	C	0.279789	0.298308	0.042207
C24	C	0.352252	0.300565	0.042222
C25	C	0.394201	0.198680	-0.000202
C26	C	0.127038	0.325054	-0.000250
C27	C	0.054572	0.322796	-0.000253
C28	C	0.069445	0.053891	-0.000256
C29	C	0.141909	0.056153	-0.000245
C30	C	0.170701	0.191739	-0.000245
C31	C	0.948655	0.184825	-0.000239
C32	C	1.025777	0.187223	-0.000263
C33	C	0.818365	0.466186	-0.000207
C34	C	0.820765	0.629945	-0.000209
N35	N	0.821715	0.196420	0.188462
N36	N	0.821767	0.196445	-0.188874
C37	C	0.868318	0.095865	0.226552
C38	C	0.868323	0.095858	0.302779
C39	C	0.821731	0.196433	0.340915
C40	C	0.775119	0.296996	0.302816
C41	C	0.775111	0.296990	0.226590
C42	C	0.813476	0.330848	0.461676
C43	C	0.813489	0.330856	0.537901
C44	C	0.821751	0.196451	0.576022
C45	C	0.830015	0.062032	0.537909
C46	C	0.830007	0.062026	0.461683
C47	C	0.821734	0.196450	0.423570
C48	C	0.868361	0.095880	0.696767
C49	C	0.868361	0.095871	0.772996
C50	C	0.775160	0.297022	0.773031
C51	C	0.775157	0.297018	0.696803
C52	C	0.821761	0.196448	0.658676
H53	H	0.597476	0.449370	-0.000169
Br54	Br	0.711881	0.433481	0.354568
Br55	Br	0.166118	0.509058	-0.000245
H56	H	0.019024	0.431359	-0.000258
H57	H	0.492991	-0.042571	-0.000189
H58	H	0.836742	-0.047414	0.568946
H59	H	0.906274	0.013971	0.333798
H60	H	0.624457	-0.038493	-0.000146
Br61	Br	0.201168	-0.124780	-0.000231
Br62	Br	0.222860	0.436557	0.099788
Br63	Br	0.249822	-0.048981	-0.100259
Br64	Br	0.030367	-0.130103	-0.000258
H65	H	0.737211	0.378905	0.665789
Br66	Br	0.802282	0.513279	0.589619
H67	H	0.906308	0.013979	0.804009
H68	H	0.397845	0.011624	-0.077190
Br69	Br	0.931606	-0.040610	0.645020
H70	H	0.906265	0.013972	0.195510
H71	H	0.836734	-0.047423	0.430654
Br72	Br	0.711920	0.433501	0.824780
H73	H	0.806736	0.440305	0.430644
Br74	Br	0.711859	0.433467	0.174892
Br75	Br	0.393664	0.441875	0.099814
H76	H	0.466018	0.445275	-0.000183
