data_functionalizedCrystal
_audit_creation_method	'MofGen! by Chris Wilmer'
_symmetry_space_group_name_H-M	'P1'
_symmetry_Int_Tables_number	1
_symmetry_cell_setting	triclinic
loop_
_symmetry_equiv_pos_as_xyz
  x,y,z
_cell_length_a	16.625546
_cell_length_b	16.625547
_cell_length_c	16.625539
_cell_angle_alpha	90.027058
_cell_angle_beta	89.969603
_cell_angle_gamma	89.978346
loop_
_atom_site_label
_atom_site_type_symbol
_atom_site_fract_x
_atom_site_fract_y
_atom_site_fract_z
Zn1	Zn	-0.321018	-1.232681	-0.456037
Zn2	Zn	0.012316	-0.899347	-0.122704
Zn3	Zn	0.345649	-0.566014	0.210629
Zn4	Zn	-0.455861	-1.232584	-0.321200
Zn5	Zn	-0.122527	-0.899250	0.012134
Zn6	Zn	0.210806	-0.565917	0.345467
Zn7	Zn	-0.321044	-1.097842	-0.321202
Zn8	Zn	0.012289	-0.764509	0.012131
Zn9	Zn	0.345623	-0.431176	0.345464
Zn10	Zn	-0.455810	-1.097813	-0.455974
Zn11	Zn	-0.122477	-0.764479	-0.122641
Zn12	Zn	0.210857	-0.431146	0.210693
O13	O	-0.388433	-1.165230	-0.388603
O14	O	-0.055100	-0.831896	-0.055270
O15	O	0.278234	-0.498563	0.278063
O16	O	-0.338915	-1.345500	-0.438176
O17	O	-0.005582	-1.012167	-0.104843
O18	O	0.327752	-0.678833	0.228491
O19	O	-0.438009	-1.214682	-0.208367
O20	O	-0.104676	-0.881349	0.124966
O21	O	0.228657	-0.548015	0.458299
O22	O	-0.208208	-1.115782	-0.339116
O23	O	0.125125	-0.782448	-0.005783
O24	O	0.458459	-0.449115	0.327550
O25	O	-0.437984	-1.345429	-0.339111
O26	O	-0.104650	-1.012096	-0.005778
O27	O	0.228683	-0.678762	0.327555
O28	O	-0.208189	-1.214847	-0.438179
O29	O	0.125145	-0.881513	-0.104845
O30	O	0.458478	-0.548180	0.228488
O31	O	-0.338960	-1.115688	-0.208370
O32	O	-0.005627	-0.782355	0.124964
O33	O	0.327707	-0.449021	0.458297
O34	O	-0.338911	-0.985006	-0.339055
O35	O	-0.005577	-0.651673	-0.005722
O36	O	0.327756	-0.318339	0.327612
O37	O	-0.437897	-1.115731	-0.568815
O38	O	-0.104564	-0.782398	-0.235482
O39	O	0.228769	-0.449065	0.097852
O40	O	-0.437923	-0.984984	-0.438071
O41	O	-0.104589	-0.651651	-0.104738
O42	O	0.228744	-0.318318	0.228595
O43	O	-0.338866	-1.214818	-0.568861
O44	O	-0.005533	-0.881485	-0.235528
O45	O	0.327801	-0.548151	0.097805
O46	O	-0.568686	-1.214653	-0.339050
O47	O	-0.235353	-0.881320	-0.005717
O48	O	0.097980	-0.547987	0.327617
O49	O	-0.568649	-1.115638	-0.438068
O50	O	-0.235316	-0.782304	-0.104735
O51	O	0.098017	-0.448971	0.228598
C52	C	-0.388415	-0.955739	-0.388557
C53	C	-0.055081	-0.622406	-0.055224
C54	C	0.278252	-0.289072	0.278110
C55	C	-0.388426	-0.866118	-0.388556
C56	C	-0.055093	-0.532785	-0.055223
C57	C	0.278240	-0.199451	0.278110
C58	C	-0.388427	-0.793335	-0.388564
C59	C	-0.055093	-0.460002	-0.055230
C60	C	0.278240	-0.126669	0.278103
C61	C	-0.388430	-0.702027	-0.388580
C62	C	-0.055097	-0.368694	-0.055247
C63	C	0.278237	-0.035360	0.278087
C64	C	-0.388436	-0.629251	-0.388598
C65	C	-0.055103	-0.295917	-0.055264
C66	C	0.278230	0.037416	0.278069
C67	C	-0.388441	-0.537936	-0.388614
C68	C	-0.055107	-0.204603	-0.055280
C69	C	0.278226	0.128730	0.278053
C70	C	-0.597924	-1.165154	-0.388570
C71	C	-0.264591	-0.831820	-0.055236
C72	C	0.068743	-0.498487	0.278097
C73	C	-0.687545	-1.165195	-0.388582
C74	C	-0.354212	-0.831861	-0.055249
C75	C	-0.020878	-0.498528	0.278085
C76	C	-1.015721	-1.165335	-0.388666
C77	C	-0.682387	-0.832002	-0.055333
C78	C	-0.349054	-0.498669	0.278001
C79	C	-0.924412	-1.165294	-0.388645
C80	C	-0.591079	-0.831960	-0.055312
C81	C	-0.257746	-0.498627	0.278022
C82	C	-0.851636	-1.165264	-0.388624
C83	C	-0.518302	-0.831931	-0.055290
C84	C	-0.184969	-0.498598	0.278043
C85	C	-0.760321	-1.165224	-0.388603
C86	C	-0.426988	-0.831891	-0.055270
C87	C	-0.093655	-0.498557	0.278063
C88	C	-0.178124	-1.165328	-0.388655
C89	C	0.155209	-0.831995	-0.055322
C90	C	0.488543	-0.498662	0.278012
C91	C	-0.088503	-1.165370	-0.388677
C92	C	0.244830	-0.832037	-0.055344
C93	C	0.578164	-0.498704	0.277990
C94	C	-0.388373	-1.165282	-0.598912
C95	C	-0.055040	-0.831949	-0.265579
C96	C	0.278294	-0.498616	0.067754
C97	C	-0.388347	-1.165305	-0.688534
C98	C	-0.055014	-0.831971	-0.355200
C99	C	0.278319	-0.498638	-0.021867
C100	C	-0.388449	-0.375539	-0.388640
C101	C	-0.055116	-0.042205	-0.055307
C102	C	0.278218	0.291128	0.278026
C103	C	-0.388447	-0.465160	-0.388631
C104	C	-0.055114	-0.131826	-0.055298
C105	C	0.278220	0.201507	0.278035
C106	C	-0.388257	-1.165342	-1.016709
C107	C	-0.054924	-0.832008	-0.683376
C108	C	0.278410	-0.498675	-0.350043
C109	C	-0.388285	-1.165329	-0.925401
C110	C	-0.054951	-0.831996	-0.592068
C111	C	0.278382	-0.498663	-0.258734
C112	C	-0.388303	-1.165324	-0.852624
C113	C	-0.054970	-0.831990	-0.519291
C114	C	0.278364	-0.498657	-0.185958
C115	C	-0.388329	-1.165310	-0.761310
C116	C	-0.054996	-0.831977	-0.427977
C117	C	0.278337	-0.498644	-0.094643
C118	C	-0.388435	-1.165224	-0.179113
C119	C	-0.055101	-0.831891	0.154221
C120	C	0.278232	-0.498557	0.487554
C121	C	-0.388233	-1.165358	-0.089492
C122	C	-0.054900	-0.832025	0.243841
C123	C	0.278433	-0.498691	0.577175
