data_functionalizedCrystal
_audit_creation_method	'MofGen! by Chris Wilmer'
_symmetry_space_group_name_H-M	'P1'
_symmetry_Int_Tables_number	1
_symmetry_cell_setting	triclinic
loop_
_symmetry_equiv_pos_as_xyz
  x,y,z
_cell_length_a	12.827893
_cell_length_b	15.299816
_cell_length_c	12.827885
_cell_angle_alpha	80.348750
_cell_angle_beta	90.019272
_cell_angle_gamma	80.350491
loop_
_atom_site_label
_atom_site_type_symbol
_atom_site_fract_x
_atom_site_fract_y
_atom_site_fract_z
Zn1	Zn	1.669580	-0.359013	0.662876
Zn2	Zn	2.169580	0.140987	1.162876
Zn3	Zn	1.699687	-0.509854	0.518399
Zn4	Zn	2.199687	-0.009854	1.018399
Zn5	Zn	1.494830	-0.359057	0.488159
Zn6	Zn	1.994830	0.140943	0.988159
Zn7	Zn	1.525006	-0.509787	0.693086
Zn8	Zn	2.025006	-0.009787	1.193086
O9	O	1.597276	-0.434428	0.590630
O10	O	2.097276	0.065572	1.090630
O11	O	1.819811	-0.379032	0.643724
O12	O	2.319811	0.120968	1.143724
O13	O	1.672483	-0.489897	0.368161
O14	O	2.172483	0.010103	0.868161
O15	O	1.492782	-0.232842	0.486037
O16	O	1.992782	0.267158	0.986037
O17	O	1.841931	-0.489854	0.537577
O18	O	2.341931	0.010146	1.037577
O19	O	1.621170	-0.232810	0.614401
O20	O	2.121170	0.267190	1.114401
O21	O	1.521976	-0.379107	0.345943
O22	O	2.021976	0.120893	0.845943
O23	O	1.352595	-0.379042	0.515330
O24	O	1.852595	0.120958	1.015330
O25	O	1.544213	-0.489740	0.835305
O26	O	2.044213	0.010260	1.335305
O27	O	1.374765	-0.489782	0.665889
O28	O	1.874765	0.010218	1.165889
O29	O	1.650430	-0.378967	0.813110
O30	O	2.150430	0.121033	1.313110
O31	O	1.701744	-0.636053	0.566870
O32	O	2.201744	-0.136053	1.066870
O33	O	1.573407	-0.636004	0.695212
O34	O	2.073407	-0.136004	1.195212
C35	C	1.325762	-0.434410	0.590607
C36	C	1.825762	0.065590	1.090607
C37	C	1.209612	-0.434424	0.590626
C38	C	1.709612	0.065576	1.090626
C39	C	1.644146	-0.668753	0.637623
C40	C	2.144146	-0.168753	1.137623
C41	C	1.664292	-0.768999	0.657762
C42	C	2.164292	-0.268999	1.157762
C43	C	1.168843	-0.489308	0.665046
C44	C	1.668843	0.010692	1.165046
C45	C	1.048796	-0.489324	0.665068
C46	C	1.548796	0.010676	1.165068
C47	C	1.453969	-1.051940	0.447049
C48	C	1.953969	-0.551940	0.947049
C49	C	1.435035	-0.957754	0.428130
C50	C	1.935035	-0.457754	0.928130
C51	C	1.492348	-0.910561	0.485536
C52	C	1.992348	-0.410561	0.985536
C53	C	1.568598	-0.957562	0.561865
C54	C	2.068598	-0.457562	1.061865
C55	C	1.587528	-1.051757	0.580792
C56	C	2.087528	-0.551757	1.080792
C57	C	1.625907	-0.910378	0.619279
C58	C	2.125907	-0.410378	1.119279
C59	C	1.702157	-0.957379	0.695608
C60	C	2.202157	-0.457379	1.195608
C61	C	1.721084	-1.051565	0.714531
C62	C	2.221084	-0.551565	1.214531
C63	C	1.663771	-1.098758	0.657125
C64	C	2.163771	-0.598758	1.157125
C65	C	1.606976	-0.816183	0.600352
C66	C	2.106976	-0.316183	1.100352
C67	C	1.740535	-0.816000	0.734095
C68	C	2.240535	-0.316000	1.234095
C69	C	1.759470	-0.910186	0.753014
C70	C	2.259470	-0.410186	1.253014
C71	C	1.869849	-0.434446	0.590654
C72	C	2.369849	0.065554	1.090654
C73	C	1.986004	-0.434453	0.590664
C74	C	2.486004	0.065547	1.090664
C75	C	1.597329	-0.434341	0.863183
C76	C	2.097329	0.065659	1.363183
C77	C	1.597352	-0.434304	0.979329
C78	C	2.097352	0.065696	1.479329
C79	C	1.550251	-0.199187	0.543476
C80	C	2.050251	0.300813	1.043476
C81	C	1.530212	-0.098941	0.523381
C82	C	2.030212	0.401059	1.023381
C83	C	1.597269	-0.434449	0.319124
C84	C	2.097269	0.065551	0.819124
C85	C	1.597398	-0.434232	0.202928
C86	C	2.097398	0.065768	0.702928
C87	C	1.649917	-0.379479	1.020129
C88	C	2.149917	0.120521	1.520129
C89	C	1.649942	-0.379440	1.140171
C90	C	2.149942	0.120560	1.640171
H91	H	1.222812	-0.536281	0.728748
H92	H	1.722812	-0.036281	1.228748
H93	H	1.552360	-0.481206	1.033268
H94	H	2.052360	0.018794	1.533268
H95	H	1.013693	-0.536315	0.728780
H96	H	1.513693	-0.036315	1.228780
H97	H	1.155641	-0.387445	0.526931
H98	H	1.655641	0.112555	1.026931
C99	C	1.351167	-0.906055	0.344178
C100	C	1.851167	-0.406055	0.844178
H101	H	1.348092	-0.843201	0.341137
H102	H	1.848092	-0.343201	0.841137
H103	H	1.369599	-0.921523	0.277083
H104	H	1.869599	-0.421523	0.777083
H105	H	1.284055	-0.921536	0.362535
H106	H	1.784055	-0.421536	0.862535
H107	H	1.544893	-0.777923	0.538205
H108	H	2.044893	-0.277923	1.038205
H109	H	1.787202	-0.777576	0.780843
H110	H	2.287202	-0.277576	1.280843
C111	C	1.033404	-0.370969	0.504584
C112	C	1.533404	0.129031	1.004584
H113	H	0.978436	-0.336550	0.457904
H114	H	1.478436	0.163450	0.957904
H115	H	1.068152	-0.331742	0.536799
H116	H	1.568152	0.168258	1.036799
H117	H	1.082861	-0.405455	0.465929
H118	H	1.582861	0.094545	0.965929
H119	H	1.552398	-0.481175	1.167807
H120	H	2.052398	0.018825	1.667807
H121	H	1.407308	-1.090373	0.400322
H122	H	1.907308	-0.590373	0.900322
C123	C	1.471529	-0.806959	0.464718
C124	C	1.971529	-0.306959	0.964718
H125	H	1.417917	-0.785726	0.411031
H126	H	1.917917	-0.285726	0.911031
H127	H	1.449141	-0.785613	0.527848
H128	H	1.949141	-0.285613	1.027848
H129	H	1.534691	-0.785620	0.442404
H130	H	2.034691	-0.285620	0.942404
H131	H	1.679187	-1.175452	0.672521
H132	H	2.179187	-0.675452	1.172521
C133	C	1.804951	-1.103264	0.798495
C134	C	2.304951	-0.603264	1.298495
H135	H	1.836380	-1.061671	0.829968
H136	H	2.336380	-0.561671	1.329968
H137	H	1.772338	-1.140007	0.851375
H138	H	2.272338	-0.640007	1.351375
H139	H	1.857890	-1.139999	0.765932
H140	H	2.357890	-0.639999	1.265932
C141	C	1.843338	-0.961889	0.836974
C142	C	2.343338	-0.461889	1.336974
H143	H	1.874770	-0.920299	0.868451
H144	H	2.374770	-0.420299	1.368451
H145	H	1.810727	-0.998635	0.889853
H146	H	2.310727	-0.498635	1.389853
H147	H	1.896275	-0.998622	0.804405
H148	H	2.396275	-0.498622	1.304405
H149	H	1.694896	-0.332568	0.966187
H150	H	2.194896	0.167432	1.466187
H151	H	1.694948	-0.332505	1.175301
H152	H	2.194948	0.167495	1.675301
