data_functionalizedCrystal
_audit_creation_method	'MofGen! by Chris Wilmer'
_symmetry_space_group_name_H-M	'P1'
_symmetry_Int_Tables_number	1
_symmetry_cell_setting	triclinic
loop_
_symmetry_equiv_pos_as_xyz
  x,y,z
_cell_length_a	10.685980
_cell_length_b	13.897448
_cell_length_c	10.686551
_cell_angle_alpha	94.407384
_cell_angle_beta	98.408259
_cell_angle_gamma	94.384308
loop_
_atom_site_label
_atom_site_type_symbol
_atom_site_fract_x
_atom_site_fract_y
_atom_site_fract_z
Zn1	Zn	1.995774	-0.216203	0.866694
Zn2	Zn	1.979340	-0.390948	0.654423
Zn3	Zn	1.767199	-0.243050	0.638157
Zn4	Zn	1.783463	-0.390854	0.850333
O5	O	1.881444	-0.310264	0.752402
O6	O	2.171228	-0.228187	0.852190
O7	O	1.937514	-0.382604	0.474633
O8	O	1.797591	-0.104500	0.668513
O9	O	2.159154	-0.356571	0.696235
O10	O	1.965524	-0.084776	0.836418
O11	O	1.781655	-0.273944	0.462683
O12	O	1.591722	-0.273853	0.652649
O13	O	1.825311	-0.356412	1.030136
O14	O	1.603672	-0.382444	0.808533
O15	O	1.981295	-0.228096	1.042156
O16	O	1.953285	-0.525924	0.680371
O17	O	1.809376	-0.525855	0.824305
C18	C	1.551638	-0.331052	0.727051
C19	C	1.410548	-0.339967	0.716236
C20	C	1.881348	-0.560886	0.752358
C21	C	1.881427	-0.668094	0.752391
C22	C	1.881566	-0.864375	0.752481
C23	C	1.881486	-0.755150	0.752434
C24	C	2.212537	-0.289395	0.777852
C25	C	2.353630	-0.280502	0.788698
C26	C	1.906950	-0.289249	1.083492
C27	C	1.917820	-0.280293	1.224583
C28	C	1.881576	-0.058659	0.752476
C29	C	1.881633	0.048560	0.752508
C30	C	1.856110	-0.331123	0.422605
C31	C	1.845486	-0.339791	0.281534
H32	H	1.351334	-0.397701	0.645915
C33	C	1.750586	-0.417864	1.201594
C34	C	1.644006	-0.388066	1.102776
C35	C	1.549104	-0.466141	1.022827
C36	C	1.560783	-0.574013	1.041695
C37	C	1.667368	-0.603816	1.140516
C38	C	1.762270	-0.525742	1.220466
H39	H	1.635356	-0.308208	1.088805
H40	H	1.470202	-0.444078	0.949672
H41	H	1.490531	-0.631808	0.982511
H42	H	1.676018	-0.683674	1.154487
H43	H	1.841171	-0.547805	1.293620
H44	H	1.412837	-0.222766	0.859006
C45	C	2.012725	-0.202216	1.304529
C46	C	2.023837	-0.193062	1.450339
C47	C	2.118740	-0.114987	1.530285
C48	C	2.202531	-0.046065	1.464421
C49	C	2.191421	-0.055216	1.318603
C50	C	2.096518	-0.133292	1.238657
H51	H	1.961808	-0.244085	1.499102
H52	H	2.126964	-0.108213	1.638229
H53	H	2.272784	0.011731	1.523601
H54	H	2.253450	-0.004194	1.269839
H55	H	2.088294	-0.140066	1.130713
