data_functionalizedCrystal
_audit_creation_method	'MofGen! by Chris Wilmer'
_symmetry_space_group_name_H-M	'P1'
_symmetry_Int_Tables_number	1
_symmetry_cell_setting	triclinic
loop_
_symmetry_equiv_pos_as_xyz
  x,y,z
_cell_length_a	13.897449
_cell_length_b	11.169416
_cell_length_c	11.169409
_cell_angle_alpha	89.969184
_cell_angle_beta	89.977245
_cell_angle_gamma	90.011620
loop_
_atom_site_label
_atom_site_type_symbol
_atom_site_fract_x
_atom_site_fract_y
_atom_site_fract_z
Zn1	Zn	1.474771	-0.477670	-0.678625
Zn2	Zn	1.808104	-0.144336	-0.345292
Zn3	Zn	2.141438	0.188997	-0.011958
Zn4	Zn	1.474680	-0.678410	-0.477947
Zn5	Zn	1.808013	-0.345077	-0.144614
Zn6	Zn	2.141347	-0.011743	0.188720
Zn7	Zn	1.313455	-0.477744	-0.477952
Zn8	Zn	1.646788	-0.144411	-0.144618
Zn9	Zn	1.980121	0.188923	0.188715
Zn10	Zn	1.313463	-0.678314	-0.678584
Zn11	Zn	1.646796	-0.344981	-0.345251
Zn12	Zn	1.980129	-0.011647	-0.011918
O13	O	1.394092	-0.578034	-0.578277
O14	O	1.727425	-0.244701	-0.244944
O15	O	2.060759	0.088632	0.088390
O16	O	1.609741	-0.504307	-0.652020
O17	O	1.943074	-0.170974	-0.318687
O18	O	2.276407	0.162359	0.014647
O19	O	1.453252	-0.651862	-0.309998
O20	O	1.786585	-0.318529	0.023335
O21	O	2.119918	0.014804	0.356669
O22	O	1.334888	-0.309784	-0.504591
O23	O	1.668222	0.023549	-0.171257
O24	O	2.001555	0.356882	0.162076
O25	O	1.609674	-0.651790	-0.504583
O26	O	1.943007	-0.318457	-0.171249
O27	O	2.276340	0.014876	0.162084
O28	O	1.453407	-0.309730	-0.652024
O29	O	1.786740	0.023604	-0.318691
O30	O	2.120074	0.356937	0.014642
O31	O	1.334800	-0.504434	-0.310001
O32	O	1.668133	-0.171101	0.023332
O33	O	2.001467	0.162233	0.356665
O34	O	1.178474	-0.504341	-0.504551
O35	O	1.511807	-0.171008	-0.171218
O36	O	1.845141	0.162326	0.162116
O37	O	1.334902	-0.651627	-0.846540
O38	O	1.668235	-0.318293	-0.513206
O39	O	2.001569	0.015040	-0.179873
O40	O	1.178480	-0.651699	-0.651955
O41	O	1.511813	-0.318365	-0.318622
O42	O	1.845147	0.014968	0.014712
O43	O	1.453415	-0.504214	-0.846570
O44	O	1.786748	-0.170881	-0.513236
O45	O	2.120081	0.162452	-0.179903
O46	O	1.453260	-0.846347	-0.504543
O47	O	1.786593	-0.513014	-0.171210
O48	O	2.119926	-0.179680	0.162124
O49	O	1.334814	-0.846276	-0.651950
O50	O	1.668147	-0.512943	-0.318617
O51	O	2.001481	-0.179610	0.014716
C52	C	1.394054	-0.889859	-0.578268
C53	C	1.727387	-0.556526	-0.244935
C54	C	2.060721	-0.223192	0.088399
C55	C	1.394126	-1.023259	-0.578304
C56	C	1.727459	-0.689926	-0.244971
C57	C	2.060792	-0.356592	0.088362
C58	C	1.143478	-0.578018	-0.578250
C59	C	1.476811	-0.244685	-0.244916
C60	C	1.810144	0.088648	0.088417
C61	C	1.036264	-0.578040	-0.578267
C62	C	1.369597	-0.244707	-0.244933
C63	C	1.702931	0.088626	0.088400
C64	C	0.839969	-0.578045	-0.578298
C65	C	1.173302	-0.244711	-0.244965
C66	C	1.506635	0.088622	0.088369
C67	C	0.949201	-0.578039	-0.578277
C68	C	1.282535	-0.244705	-0.244944
C69	C	1.615868	0.088628	0.088390
C70	C	1.645685	-0.578051	-0.578305
C71	C	1.979018	-0.244718	-0.244972
C72	C	2.312352	0.088615	0.088361
C73	C	1.752899	-0.578059	-0.578317
C74	C	2.086232	-0.244725	-0.244984
C75	C	2.419566	0.088608	0.088349
C76	C	1.394169	-0.577901	-0.891320
C77	C	1.727503	-0.244568	-0.557986
C78	C	2.060836	0.088765	-0.224653
C79	C	1.394202	-0.577845	-1.024720
C80	C	1.727536	-0.244511	-0.691386
C81	C	2.060869	0.088822	-0.358053
C82	C	1.394157	-0.264992	-0.578313
C83	C	1.727490	0.068341	-0.244979
C84	C	2.060823	0.401675	0.088354
C85	C	1.394184	-0.131592	-0.578328
C86	C	1.727518	0.201741	-0.244994
C87	C	2.060851	0.535075	0.088339
C88	C	1.394071	-0.578080	-0.266452
C89	C	1.727404	-0.244747	0.066881
C90	C	2.060737	0.088586	0.400214
C91	C	1.394225	-0.577799	-0.133053
C92	C	1.727558	-0.244465	0.200280
C93	C	2.060891	0.088868	0.533614
