data_functionalizedCrystal
_audit_creation_method	'MofGen! by Chris Wilmer'
_symmetry_space_group_name_H-M	'P1'
_symmetry_Int_Tables_number	1
_symmetry_cell_setting	triclinic
loop_
_symmetry_equiv_pos_as_xyz
  x,y,z
_cell_length_a	23.532407
_cell_length_b	14.519709
_cell_length_c	12.996460
_cell_angle_alpha	90.007090
_cell_angle_beta	90.000251
_cell_angle_gamma	83.264411
loop_
_atom_site_label
_atom_site_type_symbol
_atom_site_fract_x
_atom_site_fract_y
_atom_site_fract_z
O1	O	-0.755765	-0.111951	-0.085441
O2	O	-0.505765	0.138049	0.164559
O3	O	-0.255765	0.388049	0.414559
O4	O	-0.005765	0.638049	0.664559
O5	O	-0.589975	-0.128149	-0.085471
O6	O	-0.339975	0.121851	0.164529
O7	O	-0.089975	0.371851	0.414529
O8	O	0.160025	0.621851	0.664529
O9	O	-0.677266	0.014240	-0.085446
O10	O	-0.427266	0.264240	0.164554
O11	O	-0.177266	0.514240	0.414554
O12	O	0.072734	0.764240	0.664554
O13	O	-0.668475	-0.254341	-0.085466
O14	O	-0.418475	-0.004341	0.164534
O15	O	-0.168475	0.245659	0.414534
O16	O	0.081525	0.495659	0.664534
O17	O	-0.677257	0.014248	0.085688
O18	O	-0.427257	0.264248	0.335688
O19	O	-0.177257	0.514248	0.585688
O20	O	0.072743	0.764248	0.835688
O21	O	-0.589966	-0.128141	0.085663
O22	O	-0.339966	0.121859	0.335663
O23	O	-0.089966	0.371859	0.585663
O24	O	0.160034	0.621859	0.835663
O25	O	-0.755756	-0.111943	0.085693
O26	O	-0.505756	0.138057	0.335693
O27	O	-0.255756	0.388057	0.585693
O28	O	-0.005756	0.638057	0.835693
Cu29	Cu	-0.672860	-0.120042	0.101304
Cu30	Cu	-0.422860	0.129958	0.351304
Cu31	Cu	-0.172860	0.379958	0.601304
Cu32	Cu	0.077140	0.629958	0.851304
Cu33	Cu	-0.672871	-0.120051	-0.101082
Cu34	Cu	-0.422871	0.129949	0.148918
Cu35	Cu	-0.172871	0.379949	0.398918
Cu36	Cu	0.077129	0.629949	0.648918
O37	O	-0.668465	-0.254333	0.085668
O38	O	-0.418465	-0.004333	0.335668
O39	O	-0.168465	0.245667	0.585668
O40	O	0.081535	0.495667	0.835668
C41	C	-0.676852	0.048599	0.000121
C42	C	-0.426852	0.298599	0.250121
C43	C	-0.176852	0.548599	0.500121
C44	C	0.073148	0.798599	0.750121
C45	C	-0.675624	0.150966	0.000121
C46	C	-0.425624	0.400966	0.250121
C47	C	-0.175624	0.650966	0.500121
C48	C	0.074376	0.900966	0.750121
C49	C	-0.568753	-0.127733	0.000092
C50	C	-0.318753	0.122267	0.250092
C51	C	-0.068753	0.372267	0.500092
C52	C	0.181247	0.622267	0.750092
C53	C	-0.505530	-0.126493	0.000081
C54	C	-0.255530	0.123507	0.250081
C55	C	-0.005530	0.373507	0.500081
C56	C	0.244470	0.623507	0.750081
C57	C	-0.776979	-0.112360	0.000128
C58	C	-0.526979	0.137640	0.250128
C59	C	-0.276979	0.387640	0.500128
C60	C	-0.026979	0.637640	0.750128
C61	C	-0.840201	-0.113600	0.000132
C62	C	-0.590201	0.136400	0.250132
C63	C	-0.340201	0.386400	0.500132
C64	C	-0.090201	0.636400	0.750132
C65	C	-0.106772	-0.202977	0.000121
C66	C	0.143228	0.047023	0.250121
C67	C	0.393228	0.297023	0.500121
C68	C	0.643228	0.547023	0.750121
C69	C	-0.047367	-0.201825	0.000128
C70	C	0.202633	0.048175	0.250128
C71	C	0.452633	0.298175	0.500128
C72	C	0.702633	0.548175	0.750128
O73	O	-0.010942	-0.272727	0.000160
O74	O	0.239058	-0.022727	0.250160
O75	O	0.489058	0.227273	0.500160
O76	O	0.739058	0.477273	0.750160
N77	N	-0.024358	-0.117175	0.000132
N78	N	0.225642	0.132825	0.250132
N79	N	0.475642	0.382825	0.500132
N80	N	0.725642	0.632825	0.750132
C81	C	-0.060759	-0.033671	0.000141
C82	C	0.189241	0.216329	0.250141
C83	C	0.439241	0.466329	0.500141
C84	C	0.689241	0.716329	0.750141
O85	O	-0.035734	0.038437	0.000147
O86	O	0.214266	0.288437	0.250147
O87	O	0.464266	0.538437	0.500147
O88	O	0.714266	0.788437	0.750147
C89	C	-0.120164	-0.034824	0.000142
C90	C	0.129836	0.215176	0.250142
C91	C	0.379836	0.465176	0.500142
C92	C	0.629836	0.715176	0.750142
C93	C	-0.143168	-0.119480	0.000127
C94	C	0.106832	0.130520	0.250127
C95	C	0.356832	0.380520	0.500127
C96	C	0.606832	0.630520	0.750127
C97	C	-0.129777	-0.287626	0.000107
C98	C	0.120223	-0.037626	0.250107
C99	C	0.370223	0.212374	0.500107
C100	C	0.620223	0.462374	0.750107
C101	C	-0.189179	-0.288778	0.000099
C102	C	0.060821	-0.038778	0.250099
C103	C	0.310821	0.211222	0.500099
C104	C	0.560821	0.461222	0.750099
C105	C	-0.225575	-0.205281	0.000105
C106	C	0.024425	0.044719	0.250105
C107	C	0.274425	0.294719	0.500105
C108	C	0.524425	0.544719	0.750105
C109	C	-0.202570	-0.120631	0.000119
C110	C	0.047430	0.129369	0.250119
C111	C	0.297430	0.379369	0.500119
C112	C	0.547430	0.629369	0.750119
C113	C	-0.156563	0.048679	0.000158
C114	C	0.093437	0.298679	0.250158
C115	C	0.343437	0.548679	0.500158
C116	C	0.593437	0.798679	0.750158
C117	C	-0.215971	0.047519	0.000160
C118	C	0.034029	0.297519	0.250160
C119	C	0.284029	0.547519	0.500160
C120	C	0.534029	0.797519	0.750160
C121	C	-0.238976	-0.037137	0.000145
C122	C	0.011024	0.212863	0.250145
C123	C	0.261024	0.462863	0.500145
C124	C	0.511024	0.712863	0.750145
C125	C	-0.298367	-0.038286	0.000116
C126	C	-0.048367	0.211714	0.250116
C127	C	0.201633	0.461714	0.500116
C128	C	0.451633	0.711714	0.750116
N129	N	-0.321375	-0.122936	0.000111
N130	N	-0.071375	0.127064	0.250111
N131	N	0.178625	0.377064	0.500111
N132	N	0.428625	0.627064	0.750111
C133	C	-0.284979	-0.206434	0.000106
C134	C	-0.034979	0.043566	0.250106
C135	C	0.215021	0.293566	0.500106
C136	C	0.465021	0.543566	0.750106
C137	C	0.063994	-0.031256	0.000141
C138	C	0.313994	0.218744	0.250141
C139	C	0.563994	0.468744	0.500141
C140	C	0.813994	0.718744	0.750141
C141	C	0.123397	-0.030102	0.000133
C142	C	0.373397	0.219898	0.250133
C143	C	0.623397	0.469898	0.500133
C144	C	0.873397	0.719898	0.750133
C145	C	0.136786	-0.198257	0.000121
C146	C	0.386786	0.051743	0.250121
C147	C	0.636786	0.301743	0.500121
C148	C	0.886786	0.551743	0.750121
C149	C	0.077382	-0.199410	0.000122
C150	C	0.327382	0.050590	0.250122
C151	C	0.577382	0.300590	0.500122
C152	C	0.827382	0.550590	0.750122
C153	C	0.040986	-0.115906	0.000136
C154	C	0.290986	0.134094	0.250136
C155	C	0.540986	0.384094	0.500136
C156	C	0.790986	0.634094	0.750136
C157	C	-0.409727	-0.208846	0.000087
C158	C	-0.159727	0.041154	0.250087
C159	C	0.090273	0.291154	0.500087
C160	C	0.340273	0.541154	0.750087
C161	C	-0.469134	-0.209990	0.000075
C162	C	-0.219134	0.040010	0.250075
C163	C	0.030866	0.290010	0.500075
C164	C	0.280866	0.540010	0.750075
C165	C	-0.482517	-0.041836	0.000092
C166	C	-0.232517	0.208164	0.250092
C167	C	0.017483	0.458164	0.500092
C168	C	0.267483	0.708164	0.750092
C169	C	-0.423115	-0.040691	0.000099
C170	C	-0.173115	0.209309	0.250099
C171	C	0.076885	0.459309	0.500099
C172	C	0.326885	0.709309	0.750099
C173	C	-0.386721	-0.124204	0.000100
C174	C	-0.136721	0.125796	0.250100
C175	C	0.113279	0.375796	0.500100
C176	C	0.363279	0.625796	0.750100
O177	O	-0.334827	0.032579	0.000088
O178	O	-0.084827	0.282579	0.250088
O179	O	0.165173	0.532579	0.500088
O180	O	0.415173	0.782579	0.750088
O181	O	-0.310012	-0.278529	0.000114
O182	O	-0.060012	-0.028529	0.250114
O183	O	0.189988	0.221471	0.500114
O184	O	0.439988	0.471471	0.750114
C185	C	-0.668880	-0.288692	0.000099
C186	C	-0.418880	-0.038692	0.250099
C187	C	-0.168880	0.211308	0.500099
C188	C	0.081120	0.461308	0.750099
C189	C	-0.670107	-0.391058	0.000091
C190	C	-0.420107	-0.141058	0.250091
C191	C	-0.170107	0.108942	0.500091
C192	C	0.079893	0.358942	0.750091
N193	N	-0.672857	-0.120035	0.243651
N194	N	-0.422857	0.129965	0.493651
N195	N	-0.172857	0.379965	0.743651
N196	N	0.077143	0.629965	0.993651
C197	C	-0.671104	0.525808	0.000094
C198	C	-0.421104	0.775808	0.250094
C199	C	-0.171104	1.025808	0.500094
C200	C	0.078896	1.275808	0.750094
C201	C	-0.672359	0.421515	0.000102
C202	C	-0.422359	0.671515	0.250102
C203	C	-0.172359	0.921515	0.500102
C204	C	0.077641	1.171515	0.750102
C205	C	-0.673364	0.338390	0.000109
C206	C	-0.423364	0.588390	0.250109
C207	C	-0.173364	0.838390	0.500109
C208	C	0.076636	1.088390	0.750109
C209	C	-0.674619	0.234091	0.000115
C210	C	-0.424619	0.484091	0.250115
C211	C	-0.174619	0.734091	0.500115
C212	C	0.075381	0.984091	0.750115
N213	N	-0.672879	-0.120050	-0.243429
N214	N	-0.422879	0.129950	0.006571
N215	N	-0.172879	0.379950	0.256571
N216	N	0.077121	0.629950	0.506571
C217	C	-0.672870	-0.120052	0.663465
C218	C	-0.422870	0.129948	0.913465
C219	C	-0.172870	0.379948	1.163465
C220	C	0.077130	0.629948	1.413465
C221	C	-0.672865	-0.120050	0.546660
C222	C	-0.422865	0.129950	0.796660
C223	C	-0.172865	0.379950	1.046660
C224	C	0.077135	0.629950	1.296660
C225	C	-0.672864	-0.120044	0.453562
C226	C	-0.422864	0.129956	0.703562
C227	C	-0.172864	0.379956	0.953562
C228	C	0.077136	0.629956	1.203562
C229	C	-0.672858	-0.120041	0.336749
C230	C	-0.422858	0.129959	0.586749
C231	C	-0.172858	0.379959	0.836749
C232	C	0.077142	0.629959	1.086749
H233	H	-0.487860	-0.278930	0.000062
H234	H	-0.237860	-0.028930	0.250062
H235	H	0.012140	0.221070	0.500062
H236	H	0.262140	0.471070	0.750062
Br237	Br	0.154610	0.084793	0.000122
Br238	Br	0.404610	0.334793	0.250122
Br239	Br	0.654610	0.584793	0.500122
Br240	Br	0.904610	0.834793	0.750122
Br241	Br	0.014605	0.082082	0.000151
Br242	Br	0.264605	0.332082	0.250151
Br243	Br	0.514605	0.582082	0.500151
Br244	Br	0.764605	0.832082	0.750151
H245	H	-0.512162	0.026146	0.000092
H246	H	-0.262162	0.276146	0.250092
H247	H	-0.012162	0.526146	0.500092
H248	H	0.237838	0.776146	0.750092
H249	H	-0.100149	-0.355624	0.000107
H250	H	0.149851	-0.105624	0.250107
H251	H	0.399851	0.144376	0.500107
H252	H	0.649851	0.394376	0.750107
Br253	Br	-0.220389	-0.403674	0.000083
Br254	Br	0.029611	-0.153674	0.250083
Br255	Br	0.279611	0.096326	0.500083
Br256	Br	0.529611	0.346326	0.750083
H257	H	0.058656	-0.268344	0.000116
H258	H	0.308656	-0.018344	0.250116
H259	H	0.558656	0.231656	0.500116
H260	H	0.808656	0.481656	0.750116
Br261	Br	-0.360343	-0.322185	0.000091
Br262	Br	-0.110343	-0.072185	0.250091
Br263	Br	0.139657	0.177815	0.500091
Br264	Br	0.389657	0.427815	0.750091
H265	H	0.166431	-0.266245	0.000121
H266	H	0.416431	-0.016245	0.250121
H267	H	0.666431	0.233755	0.500121
H268	H	0.916431	0.483755	0.750121
Br269	Br	-0.125358	0.163577	0.000156
Br270	Br	0.124642	0.413577	0.250156
Br271	Br	0.374642	0.663577	0.500156
Br272	Br	0.624642	0.913577	0.750156
H273	H	-0.404384	0.028243	0.000096
H274	H	-0.154384	0.278243	0.250096
H275	H	0.095616	0.528243	0.500096
H276	H	0.345616	0.778243	0.750096
Br277	Br	-0.265362	0.160852	0.000185
Br278	Br	-0.015362	0.410852	0.250185
Br279	Br	0.234638	0.660852	0.500185
Br280	Br	0.484638	0.910852	0.750185
