data_functionalizedCrystal
_audit_creation_method	'MofGen! by Chris Wilmer'
_symmetry_space_group_name_H-M	'P1'
_symmetry_Int_Tables_number	1
_symmetry_cell_setting	triclinic
loop_
_symmetry_equiv_pos_as_xyz
  x,y,z
_cell_length_a	10.686220
_cell_length_b	29.839131
_cell_length_c	10.686551
_cell_angle_alpha	85.589901
_cell_angle_beta	90.308082
_cell_angle_gamma	94.423467
loop_
_atom_site_label
_atom_site_type_symbol
_atom_site_fract_x
_atom_site_fract_y
_atom_site_fract_z
Zn1	Zn	1.972144	-0.109531	-0.562362
Zn2	Zn	2.472144	0.390469	-0.062362
Zn3	Zn	1.955808	-0.190848	-0.352586
Zn4	Zn	2.455808	0.309152	0.147414
Zn5	Zn	1.746247	-0.121024	-0.368677
Zn6	Zn	2.246247	0.378976	0.131323
Zn7	Zn	1.762239	-0.189937	-0.578364
Zn8	Zn	2.262239	0.310063	-0.078364
O9	O	1.859109	-0.152835	-0.465497
O10	O	2.359109	0.347165	0.034503
O11	O	2.145524	-0.115889	-0.521104
O12	O	2.645524	0.384111	-0.021104
O13	O	1.914480	-0.186776	-0.179174
O14	O	2.414480	0.313224	0.320826
O15	O	1.776357	-0.056627	-0.394408
O16	O	2.276357	0.443373	0.105592
O17	O	2.133522	-0.175632	-0.366982
O18	O	2.633522	0.324368	0.133018
O19	O	1.942322	-0.048183	-0.536707
O20	O	2.442322	0.451817	-0.036707
O21	O	1.760516	-0.135477	-0.190996
O22	O	2.260516	0.364523	0.309004
O23	O	1.572821	-0.134594	-0.409924
O24	O	2.072821	0.365406	0.090076
O25	O	1.803613	-0.174081	-0.751788
O26	O	2.303613	0.325919	-0.251788
O27	O	1.584570	-0.185225	-0.563980
O28	O	2.084570	0.314775	-0.063980
O29	O	1.957829	-0.115006	-0.740032
O30	O	2.457829	0.384994	-0.240032
O31	O	1.929986	-0.253599	-0.382499
O32	O	2.429986	0.246401	0.117501
O33	O	1.787772	-0.252930	-0.548377
O34	O	2.287772	0.247070	-0.048377
C35	C	1.533178	-0.161058	-0.490435
C36	C	2.033178	0.338942	0.009565
C37	C	1.393745	-0.164586	-0.501133
C38	C	1.893745	0.335414	-0.001133
C39	C	1.858878	-0.269565	-0.465453
C40	C	2.358878	0.230435	0.034547
C41	C	1.858897	-0.319499	-0.465467
C42	C	2.358897	0.180501	0.034533
C43	C	1.933315	-0.629464	-0.379231
C44	C	2.433315	-0.129464	0.120769
C45	C	1.933474	-0.817132	-0.379268
C46	C	2.433474	-0.317132	0.120732
O47	O	1.996563	-0.841676	-0.305913
O48	O	2.496563	-0.341676	0.194087
N49	N	1.859377	-0.840268	-0.465572
N50	N	2.359377	-0.340268	0.034428
C51	C	1.785241	-0.816484	-0.551879
C52	C	2.285241	-0.316484	-0.051879
O53	O	1.722231	-0.840468	-0.625295
O54	O	2.222231	-0.340468	-0.125295
C55	C	1.785090	-0.628816	-0.551847
C56	C	2.285090	-0.128816	-0.051847
C57	C	1.859182	-0.605683	-0.465528
C58	C	2.359182	-0.105683	0.034472
C59	C	2.007402	-0.606331	-0.292920
C60	C	2.507402	-0.106331	0.207080
C61	C	2.007357	-0.559417	-0.292908
C62	C	2.507357	-0.059417	0.207092
C63	C	1.933224	-0.535636	-0.379205
C64	C	2.433224	-0.035636	0.120795
C65	C	1.859137	-0.558769	-0.465516
C66	C	2.359137	-0.058769	0.034484
C67	C	1.710962	-0.605033	-0.638159
C68	C	2.210962	-0.105033	-0.138159
C69	C	1.710934	-0.558113	-0.638145
C70	C	2.210934	-0.058113	-0.138145
C71	C	1.785026	-0.534980	-0.551827
C72	C	2.285026	-0.034980	-0.051827
C73	C	1.784958	-0.488075	-0.551801
C74	C	2.284958	0.011925	-0.051801
N75	N	1.859055	-0.464939	-0.465496
N76	N	2.359055	0.035061	0.034504
C77	C	1.933188	-0.488720	-0.379198
C78	C	2.433188	0.011280	0.120802
C79	C	1.785324	-0.915012	-0.551888
C80	C	2.285324	-0.415012	-0.051888
C81	C	1.785360	-0.961928	-0.551895
C82	C	2.285360	-0.461928	-0.051895
C83	C	1.933594	-0.962573	-0.379285
C84	C	2.433594	-0.462573	0.120715
C85	C	1.933551	-0.915656	-0.379273
C86	C	2.433551	-0.415656	0.120727
C87	C	1.859421	-0.891876	-0.465583
C88	C	2.359421	-0.391876	0.034417
C89	C	1.933086	-0.390197	-0.379177
C90	C	2.433086	0.109803	0.120823
C91	C	1.933030	-0.343279	-0.379169
C92	C	2.433030	0.156721	0.120831
C93	C	1.784801	-0.342638	-0.551783
C94	C	2.284801	0.157362	-0.051783
C95	C	1.784851	-0.389552	-0.551787
C96	C	2.284851	0.110448	-0.051787
C97	C	1.859004	-0.413330	-0.465480
C98	C	2.359004	0.086670	0.034520
O99	O	1.721913	-0.463501	-0.625126
O100	O	2.221913	0.036499	-0.125126
O101	O	1.996210	-0.464726	-0.305811
O102	O	2.496210	0.035274	0.194189
C103	C	1.933361	-0.676378	-0.379244
C104	C	2.433361	-0.176378	0.120756
C105	C	1.859273	-0.699511	-0.465554
C106	C	2.359273	-0.199511	0.034446
C107	C	1.785141	-0.675730	-0.551852
C108	C	2.285141	-0.175730	-0.051852
C109	C	1.859309	-0.746428	-0.465561
C110	C	2.359309	-0.246428	0.034439
C111	C	1.933442	-0.770208	-0.379263
C112	C	2.433442	-0.270208	0.120737
C113	C	2.007539	-0.747072	-0.292959
C114	C	2.507539	-0.247072	0.207041
C115	C	2.007493	-0.700158	-0.292946
C116	C	2.507493	-0.200158	0.207054
C117	C	1.711044	-0.698867	-0.638156
C118	C	2.211044	-0.198867	-0.138156
C119	C	1.711094	-0.745781	-0.638161
C120	C	2.211094	-0.245781	-0.138161
C121	C	1.785227	-0.769561	-0.551863
C122	C	2.285227	-0.269561	-0.051863
C123	C	2.186314	-0.144580	-0.440463
C124	C	2.686314	0.355420	0.059537
C125	C	2.325749	-0.141063	-0.429795
C126	C	2.825749	0.358937	0.070205
C127	C	1.884327	-0.143160	-0.792700
C128	C	2.384327	0.356840	-0.292700
C129	C	1.895073	-0.139037	-0.932134
C130	C	2.395073	0.360963	-0.432134
C131	C	1.859378	-0.035647	-0.465567
C132	C	2.359378	0.464353	0.034433
C133	C	1.859492	0.014291	-0.465597
C134	C	2.359492	0.514291	0.034403
C135	C	1.834062	-0.162438	-0.139563
C136	C	2.334062	0.337562	0.360437
C137	C	1.823559	-0.166429	-0.000111
C138	C	2.323559	0.333571	0.499889
H139	H	1.993364	-0.324446	-0.308874
H140	H	2.493364	0.175554	0.191126
O141	O	1.987054	-0.103784	-0.996334
O142	O	2.487054	0.396216	-0.496334
H143	H	1.981332	-0.105962	-1.099451
H144	H	2.481332	0.394038	-0.599451
O145	O	1.389918	-0.110806	-0.338054
O146	O	1.889918	0.389194	0.161946
H147	H	1.493038	-0.112686	-0.343775
H148	H	1.993038	0.387314	0.156225
O149	O	1.329571	-0.194841	-0.592886
O150	O	1.829571	0.305159	-0.092886
H151	H	1.226452	-0.192957	-0.587181
H152	H	1.726452	0.307043	-0.087181
O153	O	1.630973	-0.532467	-0.731242
O154	O	2.130973	-0.032467	-0.231242
H155	H	1.643391	-0.495956	-0.716748
H156	H	2.143391	0.004044	-0.216748
O157	O	1.731536	-0.201662	-0.935908
O158	O	2.231536	0.298338	-0.435908
H159	H	1.680839	-0.221076	-1.007631
H160	H	2.180839	0.278924	-0.507631
O161	O	2.013050	-0.415841	-0.286082
O162	O	2.513050	0.084159	0.213918
H163	H	2.064543	-0.391867	-0.226062
H164	H	2.564543	0.108133	0.273938
H165	H	2.067897	-0.766443	-0.222689
H166	H	2.567897	-0.266443	0.277311
H167	H	2.067826	-0.681327	-0.222658
H168	H	2.567826	-0.181327	0.277342
H169	H	2.067693	-0.540584	-0.222623
H170	H	2.567693	-0.040584	0.277377
H171	H	2.067777	-0.625688	-0.222645
H172	H	2.567777	-0.125688	0.277355
O173	O	2.013477	-0.890705	-0.286187
O174	O	2.513477	-0.390705	0.213813
H175	H	2.065034	-0.915127	-0.226191
H176	H	2.565034	-0.415127	0.273809
H177	H	1.993956	-0.981943	-0.309018
H178	H	2.493956	-0.481943	0.190982
H179	H	1.725014	-0.980760	-0.622173
H180	H	2.225014	-0.480760	-0.122173
H181	H	1.724955	-0.895653	-0.622174
H182	H	2.224955	-0.395653	-0.122174
O183	O	1.631177	-0.770730	-0.731269
O184	O	2.131177	-0.270730	-0.231269
H185	H	1.579635	-0.746306	-0.791278
H186	H	2.079635	-0.246306	-0.291278
O187	O	1.631057	-0.629977	-0.731267
O188	O	2.131057	-0.129977	-0.231267
H189	H	1.579524	-0.605551	-0.791276
H190	H	2.079524	-0.105551	-0.291276
H191	H	1.724524	-0.408388	-0.622078
H192	H	2.224524	0.091612	-0.122078
H193	H	1.724438	-0.323269	-0.622042
H194	H	2.224438	0.176731	-0.122042
H195	H	1.650678	-0.679508	-0.708432
H196	H	2.150678	-0.179508	-0.208432
