data_functionalizedCrystal
_audit_creation_method	'MofGen! by Chris Wilmer'
_symmetry_space_group_name_H-M	'P1'
_symmetry_Int_Tables_number	1
_symmetry_cell_setting	triclinic
loop_
_symmetry_equiv_pos_as_xyz
  x,y,z
_cell_length_a	16.109318
_cell_length_b	14.044190
_cell_length_c	14.586319
_cell_angle_alpha	89.991348
_cell_angle_beta	90.000075
_cell_angle_gamma	88.330170
loop_
_atom_site_label
_atom_site_type_symbol
_atom_site_fract_x
_atom_site_fract_y
_atom_site_fract_z
O1	O	1.112195	0.121914	-0.076174
O2	O	0.871262	0.137059	-0.076194
O3	O	0.988109	-0.008498	-0.076166
O4	O	0.995348	0.267470	-0.076202
O5	O	0.988100	-0.008500	0.076315
O6	O	0.871253	0.137057	0.076287
O7	O	1.112186	0.121911	0.076307
Cu8	Cu	0.991719	0.129484	0.090220
Cu9	Cu	0.991729	0.129486	-0.090107
O10	O	0.995339	0.267468	0.076279
C11	C	0.840237	0.136441	0.000044
C12	C	0.747805	0.134593	0.000038
C13	C	0.984938	-0.043813	0.000077
C14	C	0.975492	-0.149036	0.000084
C15	C	0.448292	0.128626	-0.083063
C16	C	0.535142	0.130356	-0.083069
C17	C	0.535150	0.130341	0.083174
C18	C	0.448302	0.128604	0.083179
C19	C	0.404875	0.127752	0.000058
C20	C	0.578573	0.131218	0.000047
C21	C	0.672740	0.133094	0.000041
C22	C	0.310702	0.125874	0.000063
C23	C	1.025216	-0.399335	0.000052
C24	C	0.958235	-0.341690	0.000053
C25	C	0.967839	-0.234488	0.000070
C26	C	1.015614	-0.506547	0.000035
C27	C	1.143211	0.122529	0.000067
C28	C	1.235643	0.124377	0.000068
C29	C	0.998510	0.302783	0.000034
C30	C	1.007956	0.408006	0.000021
N31	N	0.991717	0.129481	0.217051
N32	N	0.991737	0.129481	-0.216938
C33	C	1.043477	0.065051	0.452070
C34	C	1.043479	0.065048	0.548051
C35	C	0.939971	0.193915	0.548036
C36	C	0.939965	0.193912	0.452057
C37	C	0.991723	0.129481	0.404076
C38	C	0.991731	0.129482	0.596037
C39	C	0.991733	0.129480	0.700104
C40	C	0.991720	0.129481	0.300002
H41	H	0.570488	0.131067	-0.150754
H42	H	1.089767	-0.368176	0.000067
H43	H	0.893679	-0.372850	0.000042
H44	H	0.412936	0.127931	-0.150746
H45	H	1.085620	0.012586	0.413007
H46	H	0.570519	0.131037	0.150849
O47	O	1.099311	-0.004432	0.599820
H48	H	1.135305	-0.049224	0.550328
O49	O	0.884157	0.263418	0.599785
H50	H	0.892863	0.252606	0.674589
H51	H	0.897816	0.246379	0.412978
H52	H	0.412951	0.127891	0.150870
