data_functionalizedCrystal
_audit_creation_method	'MofGen! by Chris Wilmer'
_symmetry_space_group_name_H-M	'P1'
_symmetry_Int_Tables_number	1
_symmetry_cell_setting	triclinic
loop_
_symmetry_equiv_pos_as_xyz
  x,y,z
_cell_length_a	18.215407
_cell_length_b	12.759394
_cell_length_c	18.215399
_cell_angle_alpha	90.023582
_cell_angle_beta	90.017368
_cell_angle_gamma	90.011299
loop_
_atom_site_label
_atom_site_type_symbol
_atom_site_fract_x
_atom_site_fract_y
_atom_site_fract_z
Zn1	Zn	1.125128	-0.418349	0.416090
Zn2	Zn	1.625128	0.081651	0.916090
Zn3	Zn	1.125060	-0.594046	0.293033
Zn4	Zn	1.625060	-0.094046	0.793033
Zn5	Zn	1.002061	-0.418374	0.293042
Zn6	Zn	1.502061	0.081626	0.793042
Zn7	Zn	1.002050	-0.593979	0.416063
Zn8	Zn	1.502050	-0.093979	0.916063
O9	O	1.063575	-0.506187	0.354557
O10	O	1.563575	-0.006187	0.854557
O11	O	1.228104	-0.441673	0.399773
O12	O	1.728104	0.058327	0.899773
O13	O	1.108720	-0.570782	0.190050
O14	O	1.608720	-0.070782	0.690050
O15	O	1.018419	-0.271350	0.309380
O16	O	1.518419	0.228650	0.809380
O17	O	1.228054	-0.570758	0.309364
O18	O	1.728054	-0.070758	0.809364
O19	O	1.108836	-0.271331	0.399782
O20	O	1.608836	0.228669	0.899782
O21	O	1.018353	-0.441716	0.190057
O22	O	1.518353	0.058284	0.690057
O23	O	0.899075	-0.441651	0.309354
O24	O	1.399075	0.058349	0.809354
O25	O	1.018401	-0.570642	0.519051
O26	O	1.518401	-0.070642	1.019051
O27	O	0.899068	-0.570667	0.399737
O28	O	1.399068	-0.070667	0.899737
O29	O	1.108826	-0.441608	0.519071
O30	O	1.608826	0.058392	1.019071
O31	O	1.108710	-0.741058	0.309338
O32	O	1.608710	-0.241058	0.809338
O33	O	1.018335	-0.741009	0.399728
O34	O	1.518335	-0.241009	0.899728
C35	C	0.872369	-0.506155	0.354544
C36	C	1.372369	-0.006155	0.854544
C37	C	0.790570	-0.506166	0.354556
C38	C	1.290570	-0.006166	0.854556
C39	C	1.063534	-0.779155	0.354545
C40	C	1.563534	-0.279155	0.854545
C41	C	1.063584	-0.895931	0.354564
C42	C	1.563584	-0.395931	0.854564
C43	C	0.602401	-0.439090	0.401707
C44	C	1.102401	0.060910	0.901707
C45	C	0.525542	-0.439099	0.401709
C46	C	1.025542	0.060901	0.901709
C47	C	0.525501	-0.573313	0.307420
C48	C	1.025501	-0.073313	0.807420
C49	C	0.602358	-0.573298	0.307415
C50	C	1.102358	-0.073298	0.807415
C51	C	0.640806	-0.506188	0.354562
C52	C	1.140806	-0.006188	0.854562
C53	C	0.487090	-0.506212	0.354570
C54	C	0.987090	-0.006212	0.854570
C55	C	0.403757	-0.506223	0.354573
C56	C	0.903757	-0.006223	0.854573
C57	C	0.724145	-0.506176	0.354559
C58	C	1.224145	-0.006176	0.854559
C59	C	1.157665	-0.895754	0.448771
C60	C	1.657665	-0.395754	0.948771
C61	C	1.204728	-0.950526	0.495880
C62	C	1.704728	-0.450526	0.995880
C63	C	1.204772	-1.060247	0.495896
C64	C	1.704772	-0.560247	0.995896
C65	C	1.157746	-1.115199	0.448799
C66	C	1.657746	-0.615199	0.948799
C67	C	1.110682	-1.060427	0.401690
C68	C	1.610682	-0.560427	0.901690
C69	C	1.110645	-0.950703	0.401678
C70	C	1.610645	-0.450703	0.901678
C71	C	1.016599	-1.060605	0.307489
C72	C	1.516599	-0.560605	0.807489
C73	C	1.016557	-0.950883	0.307468
C74	C	1.516557	-0.450883	0.807468
C75	C	0.969572	-1.115557	0.260392
C76	C	1.469572	-0.615557	0.760392
C77	C	0.922511	-1.060785	0.213278
C78	C	1.422511	-0.560785	0.713278
C79	C	0.922470	-0.951057	0.213264
C80	C	1.422470	-0.451057	0.713264
C81	C	0.969494	-0.896111	0.260359
C82	C	1.469494	-0.396111	0.760359
C83	C	1.255528	-0.506220	0.354570
C84	C	1.755528	-0.006220	0.854570
C85	C	1.337327	-0.506234	0.354576
C86	C	1.837327	-0.006234	0.854576
C87	C	1.063620	-0.506115	0.546510
C88	C	1.563620	-0.006115	1.046510
C89	C	1.063639	-0.506084	0.628309
C90	C	1.563639	-0.006084	1.128309
C91	C	1.063636	-0.232154	0.354585
C92	C	1.563636	0.267846	0.854585
C93	C	1.063662	-0.115377	0.354597
C94	C	1.563662	0.384623	0.854597
C95	C	1.063573	-0.506183	0.163351
C96	C	1.563573	-0.006183	0.663351
C97	C	1.063696	-0.505918	0.081552
C98	C	1.563696	-0.005918	0.581552
C99	C	1.110740	-0.438833	0.816514
C100	C	1.610740	0.061167	1.316514
C101	C	1.110749	-0.438802	0.893373
C102	C	1.610749	0.061198	1.393373
C103	C	1.016590	-0.573172	0.893342
C104	C	1.516590	-0.073172	1.393342
C105	C	1.016578	-0.573197	0.816484
C106	C	1.516578	-0.073197	1.316484
C107	C	1.063657	-0.506029	0.778073
C108	C	1.563657	-0.006029	1.278073
C109	C	1.063678	-0.505973	0.931789
C110	C	1.563678	-0.005973	1.431789
C111	C	1.063687	-0.505941	1.015122
C112	C	1.563687	-0.005941	1.515122
C113	C	1.063647	-0.506060	0.694734
C114	C	1.563647	-0.006060	1.194734
H115	H	0.633703	-0.384442	0.440095
H116	H	1.133703	0.115558	0.940095
N117	N	1.157617	-0.777412	0.448749
N118	N	1.657617	-0.277412	0.948749
H119	H	1.171158	-0.751018	0.398269
H120	H	1.671158	-0.251018	0.898269
H121	H	1.194542	-0.750993	0.485762
H122	H	1.694542	-0.250993	0.985762
H123	H	1.149087	-0.384083	0.924669
H124	H	1.649087	0.115917	1.424669
H125	H	1.149073	-0.384137	0.785242
H126	H	1.649073	0.115863	1.285242
N127	N	0.965803	-0.645599	0.934771
N128	N	1.465803	-0.145599	1.434771
H129	H	0.972951	-0.635385	0.989294
H130	H	1.472951	-0.135385	1.489294
H131	H	0.977227	-0.720645	0.921334
H132	H	1.477227	-0.220645	1.421334
H133	H	1.157779	-1.204541	0.448823
H134	H	1.657779	-0.704541	0.948823
H135	H	0.884142	-0.906467	0.174905
H136	H	1.384142	-0.406467	0.674905
N137	N	0.969629	-1.233899	0.260399
N138	N	1.469629	-0.733899	0.760399
H139	H	0.956095	-1.260316	0.310874
H140	H	1.456095	-0.760316	0.810874
H141	H	1.020146	-1.260179	0.246878
H142	H	1.520146	-0.760179	0.746878
N143	N	0.484118	-0.366718	0.452549
N144	N	0.984118	0.133282	0.952549
H145	H	0.520140	-0.324202	0.482411
H146	H	1.020140	0.175798	0.982411
H147	H	0.452234	-0.409541	0.486560
H148	H	0.952234	0.090459	0.986560
N149	N	0.965778	-0.645654	0.775015
N150	N	1.465778	-0.145654	1.275015
H151	H	0.935956	-0.688201	0.811010
H152	H	1.435956	-0.188201	1.311010
H153	H	0.995708	-0.694293	0.743116
H154	H	1.495708	-0.194293	1.243116
H155	H	0.969468	-0.806770	0.260349
H156	H	1.469468	-0.306770	0.760349
N157	N	0.484032	-0.645690	0.256569
N158	N	0.984032	-0.145690	0.756569
H159	H	0.429515	-0.635520	0.263726
H160	H	0.929515	-0.135520	0.763726
H161	H	0.497467	-0.720743	0.267932
H162	H	0.997467	-0.220743	0.767932
H163	H	0.633629	-0.627938	0.269020
H164	H	1.133629	-0.127938	0.769020
N165	N	1.255442	-0.891258	0.546681
N166	N	1.755442	-0.391258	1.046681
H167	H	1.248276	-0.813439	0.539526
H168	H	1.748276	-0.313439	1.039526
H169	H	1.308015	-0.910390	0.535274
H170	H	1.808015	-0.410390	1.035274
N171	N	1.255528	-1.119319	0.546714
N172	N	1.755528	-0.619319	1.046714
H173	H	1.308110	-1.100182	0.535328
H174	H	1.808110	-0.600182	1.035328
H175	H	1.248356	-1.197147	0.539556
H176	H	1.748356	-0.697147	1.039556
N177	N	0.871794	-1.120051	0.162487
N178	N	1.371794	-0.620051	0.662487
H179	H	0.878961	-1.197869	0.169648
H180	H	1.378961	-0.697869	0.669648
H181	H	0.883273	-1.100910	0.109934
H182	H	1.383273	-0.600910	0.609934
