data_functionalizedCrystal
_audit_creation_method	'MofGen! by Chris Wilmer'
_symmetry_space_group_name_H-M	'P1'
_symmetry_Int_Tables_number	1
_symmetry_cell_setting	triclinic
loop_
_symmetry_equiv_pos_as_xyz
  x,y,z
_cell_length_a	21.295418
_cell_length_b	21.295418
_cell_length_c	19.805399
_cell_angle_alpha	89.958059
_cell_angle_beta	90.029155
_cell_angle_gamma	89.954392
loop_
_atom_site_label
_atom_site_type_symbol
_atom_site_fract_x
_atom_site_fract_y
_atom_site_fract_z
Zn1	Zn	-0.250318	-0.962333	0.383116
Zn2	Zn	0.249682	-0.462333	0.883116
Zn3	Zn	-0.355587	-0.962252	0.269925
Zn4	Zn	0.144413	-0.462252	0.769925
Zn5	Zn	-0.250369	-0.857067	0.269897
Zn6	Zn	0.249631	-0.357067	0.769897
Zn7	Zn	-0.355587	-0.857031	0.383028
Zn8	Zn	0.144413	-0.357031	0.883028
O9	O	-0.302965	-0.909671	0.326491
O10	O	0.197035	-0.409671	0.826491
O11	O	-0.264261	-1.050411	0.368150
O12	O	0.235739	-0.550411	0.868150
O13	O	-0.341650	-0.948280	0.175205
O14	O	0.158350	-0.448280	0.675205
O15	O	-0.162272	-0.871079	0.284941
O16	O	0.337728	-0.371079	0.784941
O17	O	-0.341601	-1.050352	0.284989
O18	O	0.158399	-0.550352	0.784989
O19	O	-0.162235	-0.948418	0.368123
O20	O	0.337765	-0.448418	0.868123
O21	O	-0.264347	-0.871001	0.175184
O22	O	0.235653	-0.371001	0.675184
O23	O	-0.264347	-0.768973	0.284855
O24	O	0.235653	-0.268973	0.784855
O25	O	-0.341601	-0.871018	0.477756
O26	O	0.158399	-0.371018	0.977756
O27	O	-0.341650	-0.768946	0.367971
O28	O	0.158350	-0.268946	0.867971
O29	O	-0.264261	-0.948383	0.477821
O30	O	0.235739	-0.448383	0.977821
O31	O	-0.443676	-0.948245	0.284903
O32	O	0.056324	-0.448245	0.784903
O33	O	-0.443676	-0.870940	0.367999
O34	O	0.056324	-0.370940	0.867999
C35	C	-0.303005	-0.746119	0.326401
C36	C	0.196995	-0.246119	0.826401
C37	C	-0.303037	-0.676151	0.326378
C38	C	0.196963	-0.176151	0.826378
C39	C	-0.466517	-0.909597	0.326459
C40	C	0.033483	-0.409597	0.826459
C41	C	-0.536485	-0.909623	0.326468
C42	C	-0.036485	-0.409623	0.826468
C43	C	-1.035921	-0.950074	0.283333
C44	C	-0.535921	-0.450074	0.783333
C45	C	-0.970179	-0.950050	0.283317
C46	C	-0.470179	-0.450050	0.783317
C47	C	-0.937324	-0.909759	0.326539
C48	C	-0.437324	-0.409759	0.826539
C49	C	-0.970217	-0.869477	0.369768
C50	C	-0.470217	-0.369477	0.869768
C51	C	-1.035958	-0.869498	0.369778
C52	C	-0.535958	-0.369498	0.869778
N53	N	-0.834074	-0.904864	0.385764
N54	N	-0.334074	-0.404864	0.885764
N55	N	-0.771622	-0.904849	0.385752
N56	N	-0.271622	-0.404849	0.885752
C57	C	-0.739249	-0.909694	0.326510
C58	C	-0.239249	-0.409694	0.826510
N59	N	-0.771687	-0.914567	0.267279
N60	N	-0.271687	-0.414567	0.767279
N61	N	-0.834144	-0.914587	0.267291
N62	N	-0.334144	-0.414587	0.767291
C63	C	-0.866039	-0.909732	0.326533
C64	C	-0.366039	-0.409732	0.826533
C65	C	-0.635079	-0.949944	0.283263
C66	C	-0.135079	-0.449944	0.783263
C67	C	-0.569335	-0.949915	0.283246
C68	C	-0.069335	-0.449915	0.783246
C69	C	-0.569374	-0.869346	0.369704
C70	C	-0.069374	-0.369346	0.869704
C71	C	-0.635117	-0.869371	0.369715
C72	C	-0.135117	-0.369371	0.869715
C73	C	-0.667965	-0.909673	0.326495
C74	C	-0.167965	-0.409673	0.826495
C75	C	-0.343344	-0.643287	0.369590
C76	C	0.156656	-0.143287	0.869590
C77	C	-0.343331	-0.577544	0.369615
C78	C	0.156669	-0.077544	0.869615
C79	C	-0.303018	-0.544668	0.326417
C80	C	0.196982	-0.044668	0.826417
C81	C	-0.262704	-0.577540	0.283202
C82	C	0.237296	-0.077540	0.783202
C83	C	-0.262713	-0.643281	0.283183
C84	C	0.237287	-0.143281	0.783183
N85	N	-0.298104	-0.441398	0.267209
N86	N	0.201896	0.058602	0.767209
N87	N	-0.298099	-0.378946	0.267229
N88	N	0.201901	0.121054	0.767229
C89	C	-0.302986	-0.346594	0.326473
C90	C	0.197014	0.153406	0.826473
N91	N	-0.307891	-0.379052	0.385698
N92	N	0.192109	0.120948	0.885698
N93	N	-0.307900	-0.441509	0.385677
N94	N	0.192100	0.058491	0.885677
C95	C	-0.303003	-0.473383	0.326433
C96	C	0.196997	0.026617	0.826433
C97	C	-0.343281	-0.242444	0.369716
C98	C	0.156719	0.257556	0.869716
C99	C	-0.343264	-0.176700	0.369742
C100	C	0.156736	0.323300	0.869742
C101	C	-0.262640	-0.176697	0.283323
C102	C	0.237360	0.323303	0.783323
C103	C	-0.262654	-0.242440	0.283303
C104	C	0.237346	0.257560	0.783303
C105	C	-0.302978	-0.275309	0.326498
C106	C	0.197022	0.224691	0.826498
C107	C	-0.138775	-0.909762	0.326539
C108	C	0.361225	-0.409762	0.826539
C109	C	-0.068806	-0.909800	0.326559
C110	C	0.431194	-0.409800	0.826559
C111	C	-0.302925	-0.909706	0.503034
C112	C	0.197075	-0.409706	1.003034
C113	C	-0.302908	-0.909721	0.578266
C114	C	0.197092	-0.409721	1.078266
C115	C	-0.302936	-0.073861	0.326563
C116	C	0.197064	0.426139	0.826563
C117	C	-0.302950	-0.143829	0.326544
C118	C	0.197050	0.356171	0.826544
C119	C	-0.302959	-0.909672	0.150635
C120	C	0.197041	-0.409672	0.650635
C121	C	-0.302798	-0.909779	0.075404
C122	C	0.197202	-0.409779	0.575404
C123	C	-0.262635	-0.950006	0.613645
C124	C	0.237365	-0.450006	1.113645
C125	C	-0.262617	-0.950012	0.684334
C126	C	0.237383	-0.450012	1.184334
C127	C	-0.302875	-0.909737	0.719642
C128	C	0.197125	-0.409737	1.219642
C129	C	-0.343150	-0.869447	0.684258
C130	C	0.156850	-0.369447	1.184258
C131	C	-0.343165	-0.869438	0.613571
C132	C	0.156835	-0.369438	1.113571
C133	C	-0.343092	-0.869483	0.969331
C134	C	0.156908	-0.369483	1.469331
C135	C	-0.343075	-0.869497	1.040023
C136	C	0.156925	-0.369497	1.540023
C137	C	-0.262544	-0.950057	1.040095
C138	C	0.237456	-0.450057	1.540095
C139	C	-0.262558	-0.950048	0.969407
C140	C	0.237442	-0.450048	1.469407
C141	C	-0.302830	-0.909756	0.934029
C142	C	0.197170	-0.409756	1.434029
C143	C	-0.302849	-0.909749	0.857381
C144	C	0.197151	-0.409749	1.357381
C145	C	-0.302861	-0.909747	0.796289
C146	C	0.197139	-0.409747	1.296289
H147	H	-1.062663	-0.982890	0.248138
H148	H	-0.562663	-0.482890	0.748138
C149	C	-0.387699	-0.679439	0.417108
C150	C	0.112301	-0.179439	0.917108
N151	N	-0.421107	-0.706671	0.452900
N152	N	0.078893	-0.206671	0.952900
H153	H	-0.229835	-0.269198	0.248112
H154	H	0.270165	0.230802	0.748112
C155	C	-0.387429	-0.825138	0.723099
C156	C	0.112571	-0.325138	1.223099
N157	N	-0.420781	-0.791762	0.752354
N158	N	0.079219	-0.291762	1.252354
C159	C	-0.218235	-0.994371	1.079017
C160	C	0.281765	-0.494371	1.579017
N161	N	-0.184862	-1.027747	1.108332
N162	N	0.315138	-0.527747	1.608332
C163	C	-0.387675	-0.541387	0.417151
C164	C	0.112325	-0.041387	0.917151
N165	N	-0.421076	-0.514155	0.452954
N166	N	0.078924	-0.014155	0.952954
C167	C	-0.218314	-0.994330	0.723248
C168	C	0.281686	-0.494330	1.223248
N169	N	-0.184943	-1.027712	0.752557
N170	N	0.315057	-0.527712	1.252557
C171	C	-0.387612	-0.140550	0.417275
C172	C	0.112388	0.359450	0.917275
N173	N	-0.421019	-0.113322	0.453075
N174	N	0.078981	0.386678	0.953075
C175	C	-0.387361	-0.825184	1.078861
C176	C	0.112639	-0.325184	1.578861
N177	N	-0.420714	-0.791809	1.108113
N178	N	0.079286	-0.291809	1.608113
C179	C	-0.933998	-0.994363	0.235769
C180	C	-0.433998	-0.494363	0.735769
N181	N	-0.906749	-1.027742	0.199959
N182	N	-0.406749	-0.527742	0.699959
C183	C	-0.934075	-0.825158	0.417314
C184	C	-0.434075	-0.325158	0.917314
N185	N	-0.906853	-0.791774	0.453126
N186	N	-0.406853	-0.291774	0.953126
C187	C	-0.218295	-0.140537	0.235805
C188	C	0.281705	0.359463	0.735805
N189	N	-0.184893	-0.113299	0.200013
N190	N	0.315107	0.386701	0.700013
C191	C	-1.072133	-0.825194	0.417335
C192	C	-0.572133	-0.325194	0.917335
N193	N	-1.099380	-0.791825	0.453158
N194	N	-0.599380	-0.291825	0.953158
C195	C	-0.671214	-0.994271	0.235715
C196	C	-0.171214	-0.494271	0.735715
N197	N	-0.698430	-1.027657	0.199900
N198	N	-0.198430	-0.527657	0.699900
H199	H	-0.375953	-0.836628	0.584766
H200	H	0.124047	-0.336628	1.084766
H201	H	-0.542624	-0.836537	0.404893
H202	H	-0.042624	-0.336537	0.904893
H203	H	-0.542560	-0.982709	0.248042
H204	H	-0.042560	-0.482709	0.748042
H205	H	-0.229854	-0.982805	0.584903
H206	H	0.270146	-0.482805	1.084903
H207	H	-0.661892	-0.836577	0.404916
H208	H	-0.161892	-0.336577	0.904916
H209	H	-0.229880	-0.550768	0.248031
H210	H	0.270120	-0.050768	0.748031
H211	H	-0.229889	-0.670039	0.247994
H212	H	0.270111	-0.170039	0.747994
C213	C	-0.218268	-0.994351	0.930573
C214	C	0.281732	-0.494351	1.430573
N215	N	-0.184905	-1.027719	0.901323
N216	N	0.315095	-0.527719	1.401323
H217	H	-0.376112	-0.269208	0.404892
H218	H	0.123888	0.230792	0.904892
C219	C	-0.387391	-0.825159	0.930425
C220	C	0.112609	-0.325159	1.430425
N221	N	-0.420758	-0.791772	0.901118
N222	N	0.079242	-0.291772	1.401118
