data_functionalizedCrystal
_audit_creation_method	'MofGen! by Chris Wilmer'
_symmetry_space_group_name_H-M	'P1'
_symmetry_Int_Tables_number	1
_symmetry_cell_setting	triclinic
loop_
_symmetry_equiv_pos_as_xyz
  x,y,z
_cell_length_a	13.032831
_cell_length_b	25.639239
_cell_length_c	25.639233
_cell_angle_alpha	90.018747
_cell_angle_beta	97.183139
_cell_angle_gamma	82.842759
loop_
_atom_site_label
_atom_site_type_symbol
_atom_site_fract_x
_atom_site_fract_y
_atom_site_fract_z
Zn1	Zn	1.597375	-0.309887	0.396930
Zn2	Zn	1.597222	-0.397296	0.309484
Zn3	Zn	1.422645	-0.298764	0.298425
Zn4	Zn	1.422535	-0.386164	0.385809
O5	O	1.509944	-0.348028	0.347662
O6	O	1.743586	-0.330795	0.394612
O7	O	1.574046	-0.384229	0.234851
O8	O	1.445933	-0.227082	0.311518
O9	O	1.743474	-0.395014	0.330367
O10	O	1.574306	-0.235253	0.383889
O11	O	1.445785	-0.311839	0.226726
O12	O	1.276398	-0.301045	0.300734
O13	O	1.445746	-0.376042	0.460450
O14	O	1.276318	-0.365257	0.364934
O15	O	1.574200	-0.320001	0.468621
O16	O	1.573939	-0.468977	0.319583
O17	O	1.445598	-0.460799	0.375658
C18	C	1.238442	-0.330737	0.330428
C19	C	1.122292	-0.323352	0.323068
C20	C	1.070496	-0.351882	0.351503
C21	C	0.950449	-0.344250	0.343897
C22	C	1.509768	-0.483859	0.347627
C23	C	1.509789	-0.541975	0.347635
C24	C	1.576946	-0.906604	0.318532
C25	C	1.576986	-0.961211	0.318541
O26	O	1.633903	-0.993064	0.293758
N27	N	1.510128	-0.984278	0.347708
C28	C	1.443232	-0.952736	0.376872
O29	O	1.386368	-0.977371	0.401682
C30	C	1.443197	-0.898131	0.376865
C31	C	1.510053	-0.875066	0.347692
C32	C	1.643797	-0.883539	0.289361
C33	C	1.643755	-0.828936	0.289351
C34	C	1.576862	-0.797398	0.318511
C35	C	1.510011	-0.820463	0.347682
C36	C	1.376308	-0.866590	0.406031
C37	C	1.376279	-0.811981	0.406022
C38	C	1.443135	-0.788916	0.376849
C39	C	1.443076	-0.734322	0.376831
N40	N	1.509934	-0.711254	0.347664
C41	C	1.576827	-0.742792	0.318504
C42	C	1.443311	-1.067412	0.376885
C43	C	1.443339	-1.122016	0.376889
C44	C	1.577095	-1.130487	0.318559
C45	C	1.577061	-1.075882	0.318552
C46	C	1.510169	-1.044345	0.347718
C47	C	1.576733	-0.628121	0.318485
C48	C	1.576682	-0.573513	0.318475
C49	C	1.442930	-0.565047	0.376807
C50	C	1.442977	-0.619650	0.376815
C51	C	1.509887	-0.651187	0.347652
O52	O	1.386191	-0.702436	0.401603
O53	O	1.633691	-0.718151	0.293704
C54	C	1.782507	-0.365387	0.364964
C55	C	1.898656	-0.372784	0.372337
C56	C	1.509978	-0.348021	0.484037
C57	C	1.509992	-0.348018	0.542152
C58	C	1.510149	-0.211668	0.347710
C59	C	1.510236	-0.153559	0.347731
C60	C	1.509971	-0.348001	0.211821
C61	C	1.510159	-0.347869	0.153719
C62	C	1.576963	-0.318743	0.906781
C63	C	1.576976	-0.318730	0.961386
O64	O	1.633832	-0.293896	0.993244
N65	N	1.510107	-0.347903	0.984442
C66	C	1.443214	-0.377087	0.952890
O67	O	1.386338	-0.401899	0.977515
C68	C	1.443197	-0.377097	0.898285
C69	C	1.510077	-0.347926	0.875233
C70	C	1.643837	-0.289575	0.883728
C71	C	1.643825	-0.289589	0.829126
C72	C	1.576939	-0.318772	0.797578
C73	C	1.510065	-0.347941	0.820631
C74	C	1.376299	-0.406278	0.866733
C75	C	1.376287	-0.406285	0.812125
C76	C	1.443167	-0.377115	0.789073
C77	C	1.443168	-0.377139	0.734482
N78	N	1.510036	-0.347966	0.711425
C79	C	1.576922	-0.318783	0.742974
C80	C	1.443255	-0.377062	1.067563
C81	C	1.443276	-0.377055	1.122166
C82	C	1.577037	-0.318697	1.130659
C83	C	1.577020	-0.318707	1.076055
C84	C	1.510123	-0.347889	1.044507
C85	C	1.576893	-0.318816	0.628307
C86	C	1.576878	-0.318835	0.573700
C87	C	1.443114	-0.377190	0.565212
C88	C	1.443132	-0.377174	0.619814
C89	C	1.510025	-0.347982	0.651360
O90	O	1.386337	-0.401958	0.702590
O91	O	1.633779	-0.293969	0.718341
H92	H	0.905923	-0.314171	0.313920
H93	H	1.321862	-0.885359	0.429784
C94	C	1.130640	-0.392514	0.392001
C95	C	1.115780	-0.387398	0.450512
C96	C	1.175919	-0.428032	0.491011
C97	C	1.250919	-0.473781	0.473000
C98	C	1.265783	-0.478899	0.414486
C99	C	1.205643	-0.438265	0.373987
H100	H	1.060257	-0.353530	0.463847
H101	H	1.164916	-0.424243	0.534326
H102	H	1.295438	-0.503860	0.502979
H103	H	1.321306	-0.512767	0.401151
H104	H	1.216647	-0.442054	0.330672
C105	C	0.958794	-0.413419	0.412837
C106	C	1.033792	-0.459169	0.394825
C107	C	1.093929	-0.499803	0.435324
C108	C	1.079066	-0.494688	0.493834
C109	C	1.004064	-0.448936	0.511848
C110	C	0.943928	-0.408302	0.471349
H111	H	1.044797	-0.462957	0.351510
H112	H	1.149450	-0.533672	0.421989
H113	H	1.123583	-0.524768	0.523814
H114	H	0.993059	-0.445148	0.555164
H115	H	0.888407	-0.374433	0.484685
C116	C	1.062146	-0.282721	0.282570
C117	C	0.987145	-0.236972	0.300581
C118	C	0.927002	-0.196339	0.260082
C119	C	0.941861	-0.201455	0.201571
C120	C	1.016866	-0.247206	0.183557
C121	C	1.077008	-0.287839	0.224056
H122	H	0.976143	-0.233183	0.343896
H123	H	0.871479	-0.162472	0.273418
H124	H	0.897340	-0.171377	0.171592
H125	H	1.027868	-0.250995	0.140242
H126	H	1.132532	-0.321706	0.210721
C127	C	1.650231	-0.548143	0.286385
C128	C	1.641794	-0.555150	0.226410
C129	C	1.715342	-0.529783	0.194321
C130	C	1.797326	-0.497409	0.222207
C131	C	1.805766	-0.490401	0.282186
C132	C	1.732218	-0.515768	0.314274
H133	H	1.581102	-0.579117	0.205764
H134	H	1.709094	-0.534971	0.149921
H135	H	1.851770	-0.478631	0.198453
H136	H	1.866458	-0.466434	0.302832
H137	H	1.738466	-0.510580	0.358674
H138	H	1.631220	-0.653792	0.294739
C139	C	1.369708	-0.409144	1.147521
C140	C	1.296134	-0.441240	1.112811
C141	C	1.222555	-0.473325	1.138162
C142	C	1.222549	-0.473314	1.198223
C143	C	1.296126	-0.441216	1.232937
C144	C	1.369705	-0.409131	1.207585
H145	H	1.296136	-0.441250	1.068347
H146	H	1.168088	-0.497086	1.112464
H147	H	1.168081	-0.497065	1.216989
H148	H	1.296124	-0.441207	1.277401
H149	H	1.424172	-0.385371	1.233283
H150	H	1.631501	-1.057106	0.294797
C151	C	1.717309	-0.803573	0.257265
C152	C	1.708879	-0.810582	0.197290
C153	C	1.782442	-0.785224	0.165203
C154	C	1.864437	-0.752857	0.193091
C155	C	1.872871	-0.745846	0.253069
C156	C	1.799307	-0.771204	0.285156
H157	H	1.648179	-0.834543	0.176643
H158	H	1.776198	-0.790415	0.120804
H159	H	1.918893	-0.734086	0.169339
H160	H	1.933571	-0.721885	0.273717
H161	H	1.805551	-0.766014	0.329556
H162	H	1.698275	-0.909213	0.265616
H163	H	1.631567	-1.156176	0.294818
H164	H	1.388889	-1.140790	0.400639
H165	H	1.388831	-1.041736	0.400633
C166	C	1.650581	-0.286616	1.050699
C167	C	1.642143	-0.226640	1.057683
C168	C	1.715706	-0.194546	1.032331
C169	C	1.797707	-0.222427	0.999994
C170	C	1.806149	-0.282406	0.993008
C171	C	1.732586	-0.314501	1.018360
H172	H	1.581438	-0.205998	1.081623
H173	H	1.709457	-0.150145	1.037503
H174	H	1.852163	-0.198669	0.981226
H175	H	1.866854	-0.303049	0.969069
H176	H	1.738835	-0.358901	1.013189
H177	H	1.321809	-0.786306	0.429774
C178	C	1.369434	-0.645027	0.408901
C179	C	1.250637	-0.630028	0.397046
C180	C	1.177103	-0.655402	0.429137
C181	C	1.222364	-0.695775	0.473083
C182	C	1.341167	-0.710776	0.484939
C183	C	1.414702	-0.685402	0.452848
H184	H	1.217126	-0.600139	0.364513
H185	H	1.089157	-0.644297	0.420360
H186	H	1.167930	-0.714559	0.496838
H187	H	1.374678	-0.740665	0.517472
H188	H	1.502647	-0.696507	0.461626
C189	C	1.650448	-0.286743	0.548344
C190	C	1.642007	-0.226766	0.555321
C191	C	1.715572	-0.194675	0.529967
C192	C	1.797578	-0.222561	0.497635
C193	C	1.806023	-0.282541	0.490656
C194	C	1.732457	-0.314632	0.516011
H195	H	1.581298	-0.206121	0.579256
H196	H	1.709321	-0.150274	0.535133
H197	H	1.852036	-0.198805	0.478866
H198	H	1.866732	-0.303186	0.466721
H199	H	1.738709	-0.359033	0.510844
C200	C	1.369673	-0.409172	1.032864
C201	C	1.250888	-0.397342	1.032841
C202	C	1.177306	-0.429450	0.998146
C203	C	1.222509	-0.473389	0.963474
C204	C	1.341300	-0.485222	0.963496
C205	C	1.414882	-0.453113	0.998191
H206	H	1.217421	-0.364813	1.058508
H207	H	1.089369	-0.420691	0.998130
H208	H	1.168039	-0.497158	0.937790
H209	H	1.374767	-0.517750	0.937828
H210	H	1.502819	-0.461872	0.998207
C211	C	1.302704	-0.438389	0.777422
C212	C	1.183917	-0.426555	0.777389
C213	C	1.110339	-0.458659	0.742686
C214	C	1.155547	-0.502597	0.708016
C215	C	1.274340	-0.514434	0.708047
C216	C	1.347918	-0.482329	0.742750
H217	H	1.150446	-0.394027	0.803056
H218	H	1.022400	-0.449897	0.742664
H219	H	1.101080	-0.526363	0.682326
H220	H	1.307812	-0.546961	0.682380
H221	H	1.435857	-0.491092	0.742772
C222	C	1.650480	-0.286709	0.663003
C223	C	1.769264	-0.298550	0.663028
C224	C	1.842857	-0.266448	0.697725
C225	C	1.797666	-0.222505	0.732395
C226	C	1.678875	-0.210662	0.732371
C227	C	1.605283	-0.242764	0.697675
H228	H	1.802723	-0.331081	0.637362
H229	H	1.930793	-0.275215	0.697742
H230	H	1.852143	-0.198740	0.758079
H231	H	1.645417	-0.178130	0.758037
H232	H	1.517346	-0.233997	0.697657
H233	H	1.698284	-0.265834	0.810362
H234	H	1.388463	-0.539359	0.400547
H235	H	1.388683	-0.400932	0.638585
H236	H	1.698304	-0.265807	0.909409
H237	H	1.631497	-0.294933	1.156356
H238	H	1.321838	-0.430032	0.885493
H239	H	1.388661	-0.400952	0.539516
