data_functionalizedCrystal
_audit_creation_method	'MofGen! by Chris Wilmer'
_symmetry_space_group_name_H-M	'P1'
_symmetry_Int_Tables_number	1
_symmetry_cell_setting	triclinic
loop_
_symmetry_equiv_pos_as_xyz
  x,y,z
_cell_length_a	18.215407
_cell_length_b	18.215404
_cell_length_c	18.215399
_cell_angle_alpha	90.027515
_cell_angle_beta	89.983101
_cell_angle_gamma	89.978718
loop_
_atom_site_label
_atom_site_type_symbol
_atom_site_fract_x
_atom_site_fract_y
_atom_site_fract_z
Zn1	Zn	1.125077	0.293042	-0.416060
Zn2	Zn	1.375077	0.543042	-0.166060
Zn3	Zn	1.625077	0.793042	0.083940
Zn4	Zn	1.875077	1.043042	0.333940
Zn5	Zn	1.124988	0.416113	-0.292995
Zn6	Zn	1.374988	0.666113	-0.042995
Zn7	Zn	1.624988	0.916113	0.207005
Zn8	Zn	1.874988	1.166113	0.457005
Zn9	Zn	1.002010	0.293059	-0.293014
Zn10	Zn	1.252010	0.543059	-0.043014
Zn11	Zn	1.502010	0.793059	0.206986
Zn12	Zn	1.752010	1.043059	0.456986
Zn13	Zn	1.001978	0.416066	-0.416026
Zn14	Zn	1.251978	0.666066	-0.166026
Zn15	Zn	1.501978	0.916066	0.083974
Zn16	Zn	1.751978	1.166066	0.333974
O17	O	1.063513	0.354570	-0.354524
O18	O	1.313513	0.604570	-0.104524
O19	O	1.563513	0.854570	0.145476
O20	O	1.813513	1.104570	0.395476
O21	O	1.228050	0.309380	-0.399742
O22	O	1.478050	0.559380	-0.149742
O23	O	1.728050	0.809380	0.100258
O24	O	1.978050	1.059380	0.350258
O25	O	1.108651	0.399817	-0.190013
O26	O	1.358651	0.649817	0.059987
O27	O	1.608651	0.899817	0.309987
O28	O	1.858651	1.149817	0.559987
O29	O	1.018386	0.190073	-0.309359
O30	O	1.268386	0.440073	-0.059359
O31	O	1.518386	0.690073	0.190641
O32	O	1.768386	0.940073	0.440641
O33	O	1.227984	0.399800	-0.309326
O34	O	1.477984	0.649800	-0.059326
O35	O	1.727984	0.899800	0.190674
O36	O	1.977984	1.149800	0.440674
O37	O	1.108803	0.190060	-0.399760
O38	O	1.358803	0.440060	-0.149760
O39	O	1.608803	0.690060	0.100240
O40	O	1.858803	0.940060	0.350240
O41	O	1.018299	0.309410	-0.190027
O42	O	1.268299	0.559410	0.059973
O43	O	1.518299	0.809410	0.309973
O44	O	1.768299	1.059410	0.559973
O45	O	0.899021	0.309364	-0.309326
O46	O	1.149021	0.559364	-0.059326
O47	O	1.399021	0.809364	0.190674
O48	O	1.649021	1.059364	0.440674
O49	O	1.018332	0.399719	-0.519015
O50	O	1.268332	0.649719	-0.269015
O51	O	1.518332	0.899719	-0.019015
O52	O	1.768332	1.149719	0.230985
O53	O	0.898998	0.399736	-0.399702
O54	O	1.148998	0.649736	-0.149702
O55	O	1.398998	0.899736	0.100298
O56	O	1.648998	1.149736	0.350298
O57	O	1.108772	0.309334	-0.519040
O58	O	1.358772	0.559334	-0.269040
O59	O	1.608772	0.809334	-0.019040
O60	O	1.858772	1.059334	0.230960
O61	O	1.108620	0.519091	-0.309293
O62	O	1.358620	0.769091	-0.059293
O63	O	1.608620	1.019091	0.190707
O64	O	1.858620	1.269091	0.440707
O65	O	1.018245	0.519056	-0.399684
O66	O	1.268245	0.769056	-0.149684
O67	O	1.518245	1.019056	0.100316
O68	O	1.768245	1.269056	0.350316
C69	C	0.872307	0.354547	-0.354513
C70	C	1.122307	0.604547	-0.104513
C71	C	1.372307	0.854547	0.145487
C72	C	1.622307	1.104547	0.395487
C73	C	0.790508	0.354555	-0.354525
C74	C	1.040508	0.604555	-0.104525
C75	C	1.290508	0.854555	0.145475
C76	C	1.540508	1.104555	0.395475
C77	C	0.525458	0.401704	-0.401518
C78	C	0.775458	0.651704	-0.151518
C79	C	1.025458	0.901704	0.098482
C80	C	1.275458	1.151704	0.348482
C81	C	0.602316	0.401698	-0.401515
C82	C	0.852316	0.651698	-0.151515
C83	C	1.102316	0.901698	0.098485
C84	C	1.352316	1.151698	0.348485
C85	C	0.602310	0.307452	-0.307542
C86	C	0.852310	0.557452	-0.057542
C87	C	1.102310	0.807452	0.192458
C88	C	1.352310	1.057452	0.442458
C89	C	0.525453	0.307463	-0.307543
C90	C	0.775453	0.557463	-0.057543
C91	C	1.025453	0.807463	0.192457
C92	C	1.275453	1.057463	0.442457
C93	C	0.487029	0.354588	-0.354535
C94	C	0.737029	0.604588	-0.104535
C95	C	0.987029	0.854588	0.145465
C96	C	1.237029	1.104588	0.395465
C97	C	0.640745	0.354571	-0.354531
C98	C	0.890745	0.604571	-0.104531
C99	C	1.140745	0.854571	0.145469
C100	C	1.390745	1.104571	0.395469
C101	C	0.724078	0.354564	-0.354527
C102	C	0.974078	0.604564	-0.104527
C103	C	1.224078	0.854564	0.145473
C104	C	1.474078	1.104564	0.395473
C105	C	0.403690	0.354596	-0.354538
C106	C	0.653690	0.604596	-0.104538
C107	C	0.903690	0.854596	0.145462
C108	C	1.153690	1.104596	0.395462
C109	C	1.063439	0.545776	-0.354499
C110	C	1.313439	0.795776	-0.104499
C111	C	1.563439	1.045776	0.145501
C112	C	1.813439	1.295776	0.395501
C113	C	1.063475	0.627575	-0.354513
C114	C	1.313475	0.877575	-0.104513
C115	C	1.563475	1.127575	0.145487
C116	C	1.813475	1.377575	0.395487
C117	C	1.063558	0.354519	-0.546477
C118	C	1.313558	0.604519	-0.296477
C119	C	1.563558	0.854519	-0.046477
C120	C	1.813558	1.104519	0.203523
C121	C	1.063577	0.354498	-0.628276
C122	C	1.313577	0.604498	-0.378276
C123	C	1.563577	0.854498	-0.128276
C124	C	1.813577	1.104498	0.121724
C125	C	1.255466	0.354593	-0.354536
C126	C	1.505466	0.604593	-0.104536
C127	C	1.755466	0.854593	0.145464
C128	C	2.005466	1.104593	0.395464
C129	C	1.337265	0.354603	-0.354541
C130	C	1.587265	0.604603	-0.104541
C131	C	1.837265	0.854603	0.145459
C132	C	2.087265	1.104603	0.395459
C133	C	1.110647	0.815763	-0.307543
C134	C	1.360647	1.065763	-0.057543
C135	C	1.610647	1.315763	0.192457
C136	C	1.860647	1.565763	0.442457
C137	C	1.110681	0.892621	-0.307565
C138	C	1.360681	1.142621	-0.057565
C139	C	1.610681	1.392621	0.192435
C140	C	1.860681	1.642621	0.442435
C141	C	1.016492	0.892625	-0.401611
C142	C	1.266492	1.142625	-0.151611
C143	C	1.516492	1.392625	0.098389
C144	C	1.766492	1.642625	0.348389
C145	C	1.016462	0.815768	-0.401592
C146	C	1.266462	1.065768	-0.151592
C147	C	1.516462	1.315768	0.098408
C148	C	1.766462	1.565768	0.348408
C149	C	1.063539	0.777339	-0.354554
C150	C	1.313539	1.027339	-0.104554
C151	C	1.563539	1.277339	0.145446
C152	C	1.813539	1.527339	0.395446
C153	C	1.063603	0.931055	-0.354595
C154	C	1.313603	1.181055	-0.104595
C155	C	1.563603	1.431055	0.145405
C156	C	1.813603	1.681055	0.395405
C157	C	1.063640	1.014388	-0.354619
C158	C	1.313640	1.264388	-0.104619
C159	C	1.563640	1.514388	0.145381
C160	C	1.813640	1.764388	0.395381
C161	C	1.063503	0.694000	-0.354531
C162	C	1.313503	0.944000	-0.104531
C163	C	1.563503	1.194000	0.145469
C164	C	1.813503	1.444000	0.395469
C165	C	1.063613	1.162617	-0.354579
C166	C	1.313613	1.412617	-0.104579
C167	C	1.563613	1.662617	0.145421
C168	C	1.813613	1.912617	0.395421
C169	C	1.063667	1.080818	-0.354636
C170	C	1.313667	1.330818	-0.104636
C171	C	1.563667	1.580818	0.145364
C172	C	1.813667	1.830818	0.395364
C173	C	1.110687	0.307390	-0.816484
C174	C	1.360687	0.557390	-0.566484
C175	C	1.610687	0.807390	-0.316484
C176	C	1.860687	1.057390	-0.066484
C177	C	1.110695	0.307369	-0.893343
C178	C	1.360695	0.557369	-0.643343
C179	C	1.610695	0.807369	-0.393343
C180	C	1.860695	1.057369	-0.143343
C181	C	1.016520	0.401491	-0.893306
C182	C	1.266520	0.651491	-0.643306
C183	C	1.516520	0.901491	-0.393306
C184	C	1.766520	1.151491	-0.143306
C185	C	1.016508	0.401509	-0.816448
C186	C	1.266508	0.651509	-0.566448
C187	C	1.516508	0.901509	-0.316448
C188	C	1.766508	1.151509	-0.066448
C189	C	1.063596	0.354459	-0.778040
C190	C	1.313596	0.604459	-0.528040
C191	C	1.563596	0.854459	-0.278040
C192	C	1.813596	1.104459	-0.028040
C193	C	1.063616	0.354420	-0.931756
C194	C	1.313616	0.604420	-0.681756
C195	C	1.563616	0.854420	-0.431756
C196	C	1.813616	1.104420	-0.181756
C197	C	1.063625	0.354397	-1.015089
C198	C	1.313625	0.604397	-0.765089
C199	C	1.563625	0.854397	-0.515089
C200	C	1.813625	1.104397	-0.265089
C201	C	1.063586	0.354481	-0.694701
C202	C	1.313586	0.604481	-0.444701
C203	C	1.563586	0.854481	-0.194701
C204	C	1.813586	1.104481	0.055299
C205	C	1.063511	0.354567	-0.163318
C206	C	1.313511	0.604567	0.086682
C207	C	1.563511	0.854567	0.336682
C208	C	1.813511	1.104567	0.586682
C209	C	1.063635	0.354382	-0.081519
C210	C	1.313635	0.604382	0.168481
C211	C	1.563635	0.854382	0.418481
C212	C	1.813635	1.104382	0.668481
H213	H	0.633605	0.269084	-0.269284
H214	H	0.883605	0.519084	-0.019284
H215	H	1.133605	0.769084	0.230716
H216	H	1.383605	1.019084	0.480716
O217	O	0.965740	0.452240	-0.934735
O218	O	1.215740	0.702240	-0.684735
O219	O	1.465740	0.952240	-0.434735
O220	O	1.715740	1.202240	-0.184735
H221	H	0.907985	0.439609	-0.919982
H222	H	1.157985	0.689609	-0.669982
H223	H	1.407985	0.939609	-0.419982
H224	H	1.657985	1.189609	-0.169982
H225	H	1.149043	0.923903	-0.269284
H226	H	1.399043	1.173903	-0.019284
H227	H	1.649043	1.423903	0.230716
H228	H	1.899043	1.673903	0.480716
H229	H	1.148980	0.784475	-0.269242
H230	H	1.398980	1.034475	-0.019242
H231	H	1.648980	1.284475	0.230758
H232	H	1.898980	1.534475	0.480758
O233	O	0.483996	0.256640	-0.256868
O234	O	0.733996	0.506640	-0.006868
O235	O	0.983996	0.756640	0.243132
O236	O	1.233996	1.006640	0.493132
H237	H	0.523625	0.223861	-0.224200
H238	H	0.773625	0.473861	0.025800
H239	H	1.023625	0.723861	0.275800
H240	H	1.273625	0.973861	0.525800
O241	O	0.965704	0.934072	-0.452330
O242	O	1.215704	1.184072	-0.202330
O243	O	1.465704	1.434072	0.047670
O244	O	1.715704	1.684072	0.297670
H245	H	0.973630	0.993972	-0.444438
H246	H	1.223630	1.243972	-0.194438
H247	H	1.473630	1.493972	0.055562
H248	H	1.723630	1.743972	0.305562
H249	H	0.978101	0.784481	-0.439878
H250	H	1.228101	1.034481	-0.189878
H251	H	1.478101	1.284481	0.060122
H252	H	1.728101	1.534481	0.310122
H253	H	1.149026	0.269077	-0.785214
H254	H	1.399026	0.519077	-0.535214
H255	H	1.649026	0.769077	-0.285214
H256	H	1.899026	1.019077	-0.035214
H257	H	0.978156	0.439837	-0.785146
H258	H	1.228156	0.689837	-0.535146
H259	H	1.478156	0.939837	-0.285146
H260	H	1.728156	1.189837	-0.035146
O261	O	1.161483	0.256603	-0.934816
O262	O	1.411483	0.506603	-0.684816
O263	O	1.661483	0.756603	-0.434816
O264	O	1.911483	1.006603	-0.184816
H265	H	1.219236	0.269238	-0.920080
H266	H	1.469236	0.519238	-0.670080
H267	H	1.719236	0.769238	-0.420080
H268	H	1.969236	1.019238	-0.170080
O269	O	0.484011	0.452586	-0.452142
O270	O	0.734011	0.702586	-0.202142
O271	O	0.984011	0.952586	0.047858
O272	O	1.234011	1.202586	0.297858
H273	H	0.523648	0.485371	-0.484788
H274	H	0.773648	0.735371	-0.234788
H275	H	1.023648	0.985371	0.015212
H276	H	1.273648	1.235371	0.265212
H277	H	0.633602	0.440065	-0.439773
H278	H	0.883602	0.690065	-0.189773
H279	H	1.133602	0.940065	0.060227
H280	H	1.383602	1.190065	0.310227
