data_functionalizedCrystal
_audit_creation_method	'MofGen! by Chris Wilmer'
_symmetry_space_group_name_H-M	'P1'
_symmetry_Int_Tables_number	1
_symmetry_cell_setting	triclinic
loop_
_symmetry_equiv_pos_as_xyz
  x,y,z
_cell_length_a	10.489741
_cell_length_b	10.489741
_cell_length_c	8.965430
_cell_angle_alpha	89.999293
_cell_angle_beta	89.998843
_cell_angle_gamma	95.460826
loop_
_atom_site_label
_atom_site_type_symbol
_atom_site_fract_x
_atom_site_fract_y
_atom_site_fract_z
O1	O	1.694053	-0.179958	-0.123946
O2	O	1.322858	-0.196851	-0.123969
O3	O	1.516902	-0.002807	-0.123948
O4	O	1.500009	-0.374003	-0.123967
O5	O	1.516886	-0.002820	0.124130
O6	O	1.322841	-0.196864	0.124110
O7	O	1.694037	-0.179971	0.124133
Cu8	Cu	1.508438	-0.188419	0.146773
Cu9	Cu	1.508457	-0.188404	-0.146609
O10	O	1.499993	-0.374016	0.124112
C11	C	1.275318	-0.195582	0.000067
C12	C	1.133688	-0.191765	0.000059
C13	C	1.065548	-0.068300	0.000079
C14	C	0.973430	-0.126617	-0.122237
C15	C	0.973447	-0.126659	0.122349
C16	C	1.043435	-0.250133	-0.122358
C17	C	1.043462	-0.250158	0.122338
C18	C	0.951371	-0.308564	-0.000007
C19	C	1.515618	0.044718	0.000090
C20	C	1.511801	0.186348	0.000087
C21	C	1.741577	-0.181241	0.000093
C22	C	1.883206	-0.185058	0.000092
C23	C	1.501277	-0.421541	0.000070
C24	C	1.505094	-0.563170	0.000063
N25	N	1.508433	-0.188429	0.353122
C26	C	1.388336	0.254488	0.000069
C27	C	1.446652	0.346604	0.122388
C28	C	1.446697	0.346591	-0.122198
C29	C	1.570167	0.276599	0.122508
C30	C	1.570195	0.276576	-0.122189
C31	C	1.628600	0.368665	0.000161
N32	N	1.508471	-0.188384	-0.352958
C33	C	1.418666	-0.278138	0.450418
C34	C	1.534163	-0.303949	0.549838
C35	C	1.392986	-0.162629	0.549830
C36	C	1.623988	-0.214298	0.450352
C37	C	1.482735	-0.072927	0.450336
C38	C	1.598314	-0.098690	0.549711
H39	H	1.286824	0.204837	0.000185
O40	O	0.936524	-0.064511	0.245876
C41	C	0.973962	-0.128528	0.374634
H42	H	0.986496	-0.232465	0.345915
H43	H	0.897210	-0.125333	0.464226
H44	H	1.068448	-0.079554	0.417877
H45	H	1.074502	-0.302361	0.225749
H46	H	1.394404	0.377610	0.225794
O47	O	1.632549	0.239684	0.245865
C48	C	1.740220	0.177907	0.202228
H49	H	1.725242	0.138939	0.084186
H50	H	1.753268	0.095545	0.282037
H51	H	1.829216	0.249280	0.205177
H52	H	0.942422	-0.074371	-0.225643
O53	O	1.632304	0.239359	-0.245592
C54	C	1.549200	0.153420	-0.329421
H55	H	1.470955	0.106664	-0.253607
H56	H	1.605679	0.076407	-0.379912
H57	H	1.503768	0.207693	-0.422530
O58	O	1.328053	-0.368550	0.398318
C59	C	1.238230	-0.309260	0.311791
H60	H	1.239319	-0.204411	0.345653
H61	H	1.138526	-0.359851	0.331045
H62	H	1.264209	-0.315577	0.188712
O63	O	1.124999	0.052711	0.000016
C64	C	1.258805	0.047468	0.001290
H65	H	1.281890	-0.048402	0.049038
H66	H	1.305413	0.128526	0.073292
H67	H	1.297312	0.058041	-0.117424
O68	O	1.080346	-0.312517	-0.245716
C69	C	1.142123	-0.420188	-0.202080
H70	H	1.181095	-0.405207	-0.084040
H71	H	1.224482	-0.433239	-0.281892
H72	H	1.070749	-0.509183	-0.205024
H73	H	1.730204	0.418089	0.000235
H74	H	1.394447	0.377561	-0.225620
O75	O	1.559912	-0.420536	0.601921
C76	C	1.465046	-0.514870	0.551313
H77	H	1.374121	-0.468302	0.523414
H78	H	1.443526	-0.589731	0.642322
H79	H	1.500778	-0.562858	0.447281
O80	O	1.740517	-0.240654	0.398676
C81	C	1.767582	-0.362051	0.450620
H82	H	1.709279	-0.387349	0.555612
H83	H	1.874002	-0.359990	0.477380
H84	H	1.741353	-0.436980	0.360876
H85	H	1.674327	-0.022803	0.593034
H86	H	1.460937	0.024699	0.406596
O87	O	0.892455	-0.429794	-0.000350
C88	C	0.928174	-0.494393	-0.129467
H89	H	0.960773	-0.421459	-0.219196
H90	H	0.842685	-0.559426	-0.172156
H91	H	1.009944	-0.554529	-0.101460
O92	O	1.276391	-0.136760	0.601777
C93	C	1.182035	-0.231624	0.551214
H94	H	1.217672	-0.278689	0.446524
H95	H	1.090447	-0.185804	0.524419
H96	H	1.161686	-0.307085	0.641811
