data_functionalizedCrystal
_audit_creation_method	'MofGen! by Chris Wilmer'
_symmetry_space_group_name_H-M	'P1'
_symmetry_Int_Tables_number	1
_symmetry_cell_setting	triclinic
loop_
_symmetry_equiv_pos_as_xyz
  x,y,z
_cell_length_a	6.817900
_cell_length_b	11.102288
_cell_length_c	17.982968
_cell_angle_alpha	94.233008
_cell_angle_beta	102.451960
_cell_angle_gamma	108.605689
loop_
_atom_site_label
_atom_site_type_symbol
_atom_site_fract_x
_atom_site_fract_y
_atom_site_fract_z
V1	V	-4.041373	-0.177030	-0.237549
O2	O	-4.001741	0.007282	-0.233027
O3	O	-4.018629	-0.349842	-0.235924
O4	O	-3.987555	-0.174844	-0.341152
O5	O	-4.033030	-0.168927	-0.127070
V6	V	-4.522378	-0.154920	-0.224334
O7	O	-4.308154	-0.225528	-0.266535
O8	O	-4.705794	-0.106422	-0.195348
O9	O	-4.321914	0.017892	-0.225959
O10	O	-4.679407	-0.339232	-0.228857
O11	O	-4.648117	-0.163023	-0.334813
O12	O	-4.352989	-0.157106	-0.120731
C13	C	-3.870047	-0.391953	-0.232177
C14	C	-3.932703	-0.533232	-0.231539
C15	C	-4.145023	-0.606098	-0.235040
C16	C	-4.203886	-0.738847	-0.234447
C17	C	-3.838085	-0.725850	-0.226848
C18	C	-3.779228	-0.593106	-0.227446
C19	C	-3.830408	-0.168724	-0.366404
C20	C	-3.867860	-0.168081	-0.451100
C21	C	-4.068320	-0.174147	-0.494772
C22	C	-4.103498	-0.173542	-0.574352
C23	C	-3.938217	-0.166879	-0.610261
C24	C	-3.737738	-0.160808	-0.566583
C25	C	-3.702558	-0.161405	-0.487003
C26	C	-3.879608	-0.158402	-0.887520
C27	C	-3.914806	-0.157810	-0.967106
C28	C	-4.280548	-0.170538	-0.974869
C29	C	-4.245368	-0.171135	-0.895289
C30	C	-4.044890	-0.165057	-0.851618
C31	C	-4.006747	-0.165712	-0.765327
C32	C	-3.976361	-0.166234	-0.696551
C33	C	-4.133840	0.059996	-0.229704
C34	C	-4.050422	0.201275	-0.230347
C35	C	-4.173479	-0.163230	-0.095475
C36	C	-4.115265	-0.163867	-0.010778
H37	H	-4.376774	-0.798169	-0.237300
Br38	Br	-4.552632	-0.178784	-1.034142
H39	H	-4.269995	-0.557353	-0.238372
Br40	Br	-3.629812	-0.807115	-0.221290
H41	H	-3.606326	-0.533777	-0.224598
Br42	Br	-4.292655	-0.183203	-0.446048
H43	H	-4.379964	-0.176566	-0.866058
Br44	Br	-4.375569	-0.181789	-0.633620
H45	H	-3.539310	-0.156434	-0.451443
Br46	Br	-3.690479	-0.148769	-1.015839
H47	H	-3.716394	-0.153498	-0.851976
H48	H	-3.603162	-0.155376	-0.595825
