data_functionalizedCrystal
_audit_creation_method	'MofGen! by Chris Wilmer'
_symmetry_space_group_name_H-M	'P1'
_symmetry_Int_Tables_number	1
_symmetry_cell_setting	triclinic
loop_
_symmetry_equiv_pos_as_xyz
  x,y,z
_cell_length_a	11.026607
_cell_length_b	15.538191
_cell_length_c	10.065875
_cell_angle_alpha	95.296196
_cell_angle_beta	79.302338
_cell_angle_gamma	77.929055
loop_
_atom_site_label
_atom_site_type_symbol
_atom_site_fract_x
_atom_site_fract_y
_atom_site_fract_z
O1	O	1.470678	0.356970	-0.113462
O2	O	1.135783	0.315173	-0.113467
O3	O	1.368422	0.209996	-0.113470
O4	O	1.238039	0.462147	-0.113459
O5	O	1.324016	0.230155	0.113519
O6	O	1.091377	0.335332	0.113522
O7	O	1.426272	0.377128	0.113528
Zn8	Zn	1.251774	0.359431	0.149564
Zn9	Zn	1.310281	0.332871	-0.149504
O10	O	1.193633	0.482306	0.113530
C11	C	1.071766	0.317542	0.000026
C12	C	0.947177	0.294556	0.000024
C13	C	1.359861	0.187293	0.000020
C14	C	1.400496	0.089608	0.000008
C15	C	0.845415	0.358023	0.000026
C16	C	0.716645	0.334268	0.000023
C17	C	0.996816	-0.266634	0.000030
C18	C	1.035024	-0.358420	0.000034
C19	C	1.249941	-0.344418	0.000037
C20	C	1.211752	-0.252629	0.000026
C21	C	1.085188	-0.213744	0.000025
C22	C	1.300124	-0.199740	0.000021
C23	C	1.261936	-0.107959	0.000018
C24	C	1.135376	-0.069067	0.000020
C25	C	1.047000	-0.121963	0.000021
C26	C	1.426686	-0.238625	0.000032
C27	C	1.515058	-0.185736	0.000027
C28	C	1.476872	-0.093954	0.000014
C29	C	1.350313	-0.055062	0.000016
C30	C	1.565249	-0.041058	0.000013
C31	C	1.527061	0.050724	0.000009
C32	C	1.312125	0.036719	0.000013
C33	C	1.490290	0.374759	0.000031
C34	C	1.614881	0.397744	0.000025
C35	C	1.202195	0.505009	0.000037
C36	C	1.161561	0.602692	0.000041
N37	N	1.211853	0.377558	0.353670
N38	N	1.350215	0.314738	-0.353610
C39	C	1.296387	0.339171	0.421448
C40	C	1.265668	0.353131	0.578616
H41	H	0.853624	0.429947	0.000036
O42	O	1.098295	0.429091	0.423031
C43	C	1.025672	0.462092	0.329496
H44	H	1.059902	0.416930	0.227597
H45	H	0.921512	0.463984	0.370908
H46	H	1.036875	0.532044	0.314349
H47	H	1.599022	0.093788	0.000007
O48	O	0.924054	-0.084068	0.000193
C49	C	0.872520	-0.020969	0.117769
H50	H	0.952435	0.002339	0.156970
H51	H	0.805361	0.038261	0.091324
H52	H	0.818093	-0.052483	0.200085
O53	O	0.706888	0.248465	0.000258
C54	C	0.742051	0.216940	0.117796
H55	H	0.729800	0.275542	0.199969
H56	H	0.679299	0.171121	0.157252
H57	H	0.845484	0.178666	0.091214
O58	O	0.873811	-0.228992	0.000073
C59	C	0.804001	-0.295356	0.000029
H60	H	0.854307	-0.354912	0.043013
H61	H	0.704909	-0.267876	0.065915
H62	H	0.796337	-0.316945	-0.108874
O63	O	0.624757	0.483522	-0.000230
C64	C	0.712629	0.490139	-0.117779
H65	H	0.720936	0.432324	-0.199933
H66	H	0.678773	0.555496	-0.157257
H67	H	0.809232	0.487947	-0.091202
O68	O	1.189182	0.074383	-0.000183
C69	C	1.156150	0.037273	-0.117766
H70	H	1.222094	-0.030861	-0.156953
H71	H	1.053967	0.030084	-0.091339
H72	H	1.165677	0.082585	-0.200087
H73	H	1.445333	0.271532	0.588068
H74	H	0.938973	0.222630	-0.000014
O75	O	0.949327	-0.409908	-0.000148
C76	C	0.987967	-0.473847	-0.117723
H77	H	1.094661	-0.484997	-0.156919
H78	H	0.964170	-0.539004	-0.091279
H79	H	0.936317	-0.449246	-0.200042
O80	O	1.098389	0.020116	0.000198
C81	C	1.121546	0.065068	0.117773
H82	H	1.198639	0.019751	0.156970
H83	H	1.153995	0.127566	0.091330
H84	H	1.030732	0.084237	0.200092
H85	H	1.352989	-0.376090	0.000044
O86	O	1.463986	-0.327763	0.000096
C87	C	1.594646	-0.350745	0.000074
H88	H	1.625081	-0.290069	0.043050
H89	H	1.613828	-0.405867	0.065977
H90	H	1.650684	-0.374882	-0.108822
H91	H	1.618106	-0.217409	0.000034
H92	H	1.668295	-0.072731	0.000028
H93	H	1.391500	0.295968	0.363123
O94	O	1.152163	0.404556	0.648334
C95	C	1.086852	0.353199	0.730975
H96	H	1.157699	0.294017	0.752226
H97	H	1.033445	0.395677	0.831523
H98	H	1.016599	0.328376	0.676006
