data_functionalizedCrystal
_audit_creation_method	'MofGen! by Chris Wilmer'
_symmetry_space_group_name_H-M	'P1'
_symmetry_Int_Tables_number	1
_symmetry_cell_setting	triclinic
loop_
_symmetry_equiv_pos_as_xyz
  x,y,z
_cell_length_a	12.827893
_cell_length_b	16.625546
_cell_length_c	12.827885
_cell_angle_alpha	89.964876
_cell_angle_beta	89.980728
_cell_angle_gamma	90.022439
loop_
_atom_site_label
_atom_site_type_symbol
_atom_site_fract_x
_atom_site_fract_y
_atom_site_fract_z
Zn1	Zn	1.597618	-0.320963	-0.590810
Zn2	Zn	2.097618	0.179037	-0.090810
Zn3	Zn	1.597491	-0.455817	-0.416054
Zn4	Zn	2.097491	0.044183	0.083946
Zn5	Zn	1.422860	-0.321002	-0.416084
Zn6	Zn	1.922860	0.178998	0.083916
Zn7	Zn	1.422823	-0.455757	-0.590754
Zn8	Zn	1.922823	0.044243	-0.090754
O9	O	1.510198	-0.388385	-0.503425
O10	O	2.010198	0.111615	-0.003425
O11	O	1.743837	-0.338861	-0.567639
O12	O	2.243837	0.161139	-0.067639
O13	O	1.574287	-0.437976	-0.269822
O14	O	2.074287	0.062024	0.230178
O15	O	1.446110	-0.208165	-0.439297
O16	O	1.946110	0.291835	0.060703
O17	O	1.743744	-0.437937	-0.439247
O18	O	2.243744	0.062063	0.060753
O19	O	1.574505	-0.208136	-0.567668
O20	O	2.074505	0.291864	-0.067668
O21	O	1.445987	-0.338928	-0.269843
O22	O	1.945987	0.161072	0.230157
O23	O	1.276619	-0.338869	-0.439243
O24	O	1.776619	0.161131	0.060757
O25	O	1.446048	-0.437835	-0.736997
O26	O	1.946048	0.062165	-0.236997
O27	O	1.276592	-0.437873	-0.567572
O28	O	1.776592	0.062127	-0.067572
O29	O	1.574469	-0.338802	-0.737039
O30	O	2.074469	0.161198	-0.237039
O31	O	1.574252	-0.568642	-0.439192
O32	O	2.074252	-0.068642	0.060808
O33	O	1.445925	-0.568598	-0.567544
O34	O	1.945925	-0.068598	-0.067544
C35	C	1.238688	-0.388370	-0.503405
C36	C	1.738688	0.111630	-0.003405
C37	C	1.122535	-0.388382	-0.503422
C38	C	1.622535	0.111618	-0.003422
C39	C	1.070765	-0.437449	-0.566825
C40	C	1.570765	0.062551	-0.066825
C41	C	0.950714	-0.437464	-0.566844
C42	C	1.450714	0.062536	-0.066844
C43	C	1.510099	-0.597876	-0.503382
C44	C	2.010099	-0.097876	-0.003382
C45	C	1.510152	-0.687497	-0.503398
C46	C	2.010152	-0.187497	-0.003398
C47	C	1.510335	-1.015673	-0.503507
C48	C	2.010335	-0.515673	-0.003507
C49	C	1.510281	-0.924364	-0.503479
C50	C	2.010281	-0.424364	-0.003479
C51	C	1.510243	-0.851588	-0.503452
C52	C	2.010243	-0.351588	-0.003452
C53	C	1.510190	-0.760274	-0.503425
C54	C	2.010190	-0.260274	-0.003425
C55	C	1.782768	-0.388401	-0.503446
C56	C	2.282768	0.111599	-0.003446
C57	C	1.898921	-0.388408	-0.503455
C58	C	2.398921	0.111592	-0.003455
C59	C	1.510269	-0.388308	-0.775996
C60	C	2.010269	0.111692	-0.275996
C61	C	1.510299	-0.388275	-0.892149
C62	C	2.010299	0.111725	-0.392149
C63	C	1.510326	-0.178076	-0.503492
C64	C	2.010326	0.321924	-0.003492
C65	C	1.510380	-0.088455	-0.503521
C66	C	2.010380	0.411545	-0.003521
C67	C	1.573853	-0.339261	-0.943954
C68	C	2.073853	0.160739	-0.443954
C69	C	1.573886	-0.339225	-1.064004
C70	C	2.073886	0.160775	-0.564004
C71	C	1.510187	-0.388404	-0.231915
C72	C	2.010187	0.111596	0.268085
C73	C	1.510359	-0.388210	-0.115763
C74	C	2.010359	0.111790	0.384237
H75	H	0.906193	-0.479474	-0.621123
H76	H	1.406193	0.020526	-0.121123
H77	H	1.455906	-0.430206	-0.936673
H78	H	1.955906	0.069794	-0.436673
H79	H	1.115319	-0.479444	-0.621098
H80	H	1.615319	0.020556	-0.121098
O81	O	1.069554	-0.338201	-0.438642
O82	O	1.569554	0.161799	0.061358
C83	C	1.140998	-0.292592	-0.379665
C84	C	1.640998	0.207408	0.120335
H85	H	1.218852	-0.289775	-0.422391
H86	H	1.718852	0.210225	0.077609
H87	H	1.109395	-0.229079	-0.368698
H88	H	1.609395	0.270921	0.131302
H89	H	1.152519	-0.322038	-0.300218
H90	H	1.652519	0.177962	0.199782
H91	H	1.628236	-0.297321	-0.899429
H92	H	2.128236	0.202679	-0.399429
O93	O	1.445300	-0.438242	-1.062748
O94	O	1.945300	0.061758	-0.562748
C95	C	1.341137	-0.420616	-1.089318
C96	C	1.841137	0.079384	-0.589318
H97	H	1.338935	-0.389647	-1.168598
H98	H	1.838935	0.110353	-0.668598
H99	H	1.294247	-0.478810	-1.092927
H100	H	1.794247	0.021190	-0.592927
H101	H	1.306000	-0.379142	-1.027916
H102	H	1.806000	0.120858	-0.527916
O103	O	1.638899	-0.289135	-1.116983
O104	O	2.138899	0.210865	-0.616983
C105	C	1.697938	-0.243581	-1.045541
C106	C	2.197938	0.256419	-0.545541
H107	H	1.701586	-0.276575	-0.967699
H108	H	2.201586	0.223425	-0.467699
H109	H	1.780259	-0.234996	-1.077165
H110	H	2.280259	0.265004	-0.577165
H111	H	1.659712	-0.182337	-1.033988
H112	H	2.159712	0.317663	-0.533988
O113	O	0.952135	-0.338401	-0.438638
O114	O	1.452135	0.161599	0.061362
C115	C	1.015202	-0.384284	-0.371066
C116	C	1.515202	0.115716	0.128934
H117	H	1.031443	-0.445432	-0.407792
H118	H	1.531443	0.054568	0.092208
H119	H	1.092002	-0.351475	-0.357195
H120	H	1.592002	0.148525	0.142805
H121	H	0.973159	-0.393047	-0.293571
H122	H	1.473159	0.106953	0.206429
