data_functionalizedCrystal
_audit_creation_method	'MofGen! by Chris Wilmer'
_symmetry_space_group_name_H-M	'P1'
_symmetry_Int_Tables_number	1
_symmetry_cell_setting	triclinic
loop_
_symmetry_equiv_pos_as_xyz
  x,y,z
_cell_length_a	17.699083
_cell_length_b	27.732048
_cell_length_c	16.176319
_cell_angle_alpha	89.988239
_cell_angle_beta	89.998611
_cell_angle_gamma	82.962835
loop_
_atom_site_label
_atom_site_type_symbol
_atom_site_fract_x
_atom_site_fract_y
_atom_site_fract_z
O1	O	1.003540	0.061127	-0.068640
O2	O	1.503540	0.561127	0.431360
O3	O	0.783091	0.069080	-0.068668
O4	O	1.283091	0.569080	0.431332
O5	O	0.900162	-0.005269	-0.068637
O6	O	1.400162	0.494731	0.431363
O7	O	0.886469	0.135475	-0.068670
O8	O	1.386469	0.635475	0.431330
O9	O	0.900146	-0.005273	0.068856
O10	O	1.400146	0.494727	0.568856
O11	O	0.783075	0.069075	0.068825
O12	O	1.283075	0.569075	0.568825
O13	O	1.003524	0.061122	0.068853
O14	O	1.503524	0.561122	0.568853
Cu15	Cu	0.893298	0.065098	0.081394
Cu16	Cu	1.393298	0.565098	0.581394
Cu17	Cu	0.893317	0.065104	-0.081208
Cu18	Cu	1.393317	0.565104	0.418792
O19	O	0.886453	0.135471	0.068823
O20	O	1.386453	0.635471	0.568823
C21	C	0.754889	0.068792	0.000075
C22	C	1.254889	0.568792	0.500075
C23	C	0.670878	0.067938	0.000065
C24	C	1.170878	0.567938	0.500065
C25	C	0.621873	0.111579	0.000055
C26	C	1.121873	0.611579	0.500055
C27	C	0.542936	0.110772	0.000066
C28	C	1.042936	0.610772	0.500066
C29	C	0.513007	0.066325	0.000081
C30	C	1.013007	0.566325	0.500081
C31	C	0.562019	0.022680	0.000094
C32	C	1.062019	0.522680	0.500094
C33	C	0.640954	0.023487	0.000089
C34	C	1.140954	0.523487	0.500089
C35	C	0.243685	0.019426	0.000115
C36	C	0.743685	0.519426	0.500115
C37	C	0.164744	0.018623	0.000117
C38	C	0.664744	0.518623	0.500117
C39	C	0.145667	0.106712	0.000092
C40	C	0.645667	0.606712	0.500092
C41	C	0.224602	0.107518	0.000087
C42	C	0.724602	0.607518	0.500087
C43	C	0.273607	0.063874	0.000104
C44	C	0.773607	0.563874	0.500104
C45	C	0.359199	0.064749	0.000094
C46	C	0.859199	0.564749	0.500094
C47	C	0.427418	0.065450	0.000085
C48	C	0.927418	0.565450	0.500085
C49	C	0.899867	-0.023279	0.000112
C50	C	1.399867	0.476721	0.500112
C51	C	0.899001	-0.076937	0.000118
C52	C	1.399001	0.423063	0.500118
C53	C	0.962734	-0.415523	0.000084
C54	C	1.462734	0.084477	0.500084
C55	C	0.959522	-0.617194	0.000072
C56	C	1.459522	-0.117194	0.500072
O57	O	1.017801	-0.648240	0.000043
O58	O	1.517801	-0.148240	0.500043
N59	N	0.890104	-0.636567	0.000064
N60	N	1.390104	-0.136567	0.500064
C61	C	0.821484	-0.605520	0.000053
C62	C	1.321484	-0.105520	0.500053
O63	O	0.762366	-0.626625	0.000038
O64	O	1.262366	-0.126625	0.500038
C65	C	0.824696	-0.403849	0.000059
C66	C	1.324696	0.096151	0.500059
C67	C	0.894119	-0.384479	0.000076
C68	C	1.394119	0.115521	0.500076
C69	C	1.032151	-0.396152	0.000100
C70	C	1.532151	0.103848	0.500100
C71	C	1.032953	-0.345737	0.000107
C72	C	1.532953	0.154263	0.500107
C73	C	0.964338	-0.314693	0.000099
C74	C	1.464338	0.185307	0.500099
C75	C	0.894921	-0.334064	0.000083
C76	C	1.394921	0.165936	0.500083
C77	C	0.756076	-0.372802	0.000043
C78	C	1.256076	0.127198	0.500043
C79	C	0.756886	-0.322382	0.000042
C80	C	1.256886	0.177618	0.500042
C81	C	0.826308	-0.303012	0.000059
C82	C	1.326308	0.196988	0.500059
C83	C	0.827108	-0.252605	0.000083
C84	C	1.327108	0.247395	0.500083
N85	N	0.896526	-0.233232	0.000091
N86	N	1.396526	0.266768	0.500091
C87	C	0.965141	-0.264276	0.000099
C88	C	1.465141	0.235724	0.500099
C89	C	0.819802	-0.711400	0.000052
C90	C	1.319802	-0.211400	0.500052
C91	C	0.818999	-0.761817	0.000052
C92	C	1.318999	-0.261817	0.500052
C93	C	0.957038	-0.773488	0.000069
C94	C	1.457038	-0.273488	0.500069
C95	C	0.957840	-0.723070	0.000075
C96	C	1.457840	-0.223070	0.500075
C97	C	0.889220	-0.692026	0.000060
C98	C	1.389220	-0.192026	0.500060
C99	C	0.966820	-0.158401	0.000115
C100	C	1.466820	0.341599	0.500115
C101	C	0.967616	-0.107981	0.000126
C102	C	1.467616	0.392019	0.500126
C103	C	0.829578	-0.096314	0.000105
C104	C	1.329578	0.403686	0.500105
C105	C	0.828781	-0.146730	0.000098
C106	C	1.328781	0.353270	0.500098
C107	C	0.897409	-0.177772	0.000101
C108	C	1.397409	0.322228	0.500101
O109	O	0.768860	-0.221531	0.000102
O110	O	1.268860	0.278469	0.500102
O111	O	1.024251	-0.243161	0.000096
O112	O	1.524251	0.256839	0.500096
C113	C	0.961931	-0.465938	0.000077
C114	C	1.461931	0.034062	0.500077
C115	C	0.892514	-0.485309	0.000061
C116	C	1.392514	0.014691	0.500061
C117	C	0.823899	-0.454265	0.000053
C118	C	1.323899	0.045735	0.500053
C119	C	0.891711	-0.535726	0.000061
C120	C	1.391711	-0.035726	0.500061
C121	C	0.960326	-0.566770	0.000069
C122	C	1.460326	-0.066770	0.500069
C123	C	1.029744	-0.547397	0.000077
C124	C	1.529744	-0.047397	0.500077
C125	C	1.030546	-0.496982	0.000085
C126	C	1.530546	0.003018	0.500085
C127	C	0.754481	-0.473638	0.000045
C128	C	1.254481	0.026362	0.500045
C129	C	0.753685	-0.524053	0.000038
C130	C	1.253685	-0.024053	0.500038
C131	C	0.822300	-0.555097	0.000046
C132	C	1.322300	-0.055097	0.500046
C133	C	1.031726	0.061410	0.000108
C134	C	1.531726	0.561410	0.500108
C135	C	1.115737	0.062264	0.000113
C136	C	1.615737	0.562264	0.500113
C137	C	0.886748	0.153481	0.000072
C138	C	1.386748	0.653481	0.500072
C139	C	0.887614	0.207139	0.000060
C140	C	1.387614	0.707139	0.500060
N141	N	0.893290	0.065094	0.195759
N142	N	1.393290	0.565094	0.695759
N143	N	0.893331	0.065104	-0.195573
N144	N	1.393331	0.565104	0.304427
C145	C	0.945145	0.032186	0.239037
C146	C	1.445145	0.532186	0.739037
C147	C	0.945149	0.032185	0.325584
C148	C	1.445149	0.532185	0.825584
C149	C	0.893301	0.065096	0.368851
C150	C	1.393301	0.565096	0.868851
C151	C	0.841441	0.098005	0.325568
C152	C	1.341441	0.598005	0.825568
C153	C	0.841434	0.098003	0.239022
C154	C	1.341434	0.598003	0.739022
C155	C	0.841467	0.098014	0.674596
C156	C	1.341467	0.598014	1.174596
C157	C	0.841479	0.098015	0.761147
C158	C	1.341479	0.598015	1.261147
C159	C	0.945181	0.032197	0.761157
C160	C	1.445181	0.532197	1.261157
C161	C	0.945174	0.032194	0.674612
C162	C	1.445174	0.532194	1.174612
C163	C	0.893312	0.065102	0.631336
C164	C	1.393312	0.565102	1.131336
C165	C	0.893308	0.065102	0.537491
C166	C	1.393308	0.565102	1.037491
C167	C	0.893309	0.065099	0.462694
C168	C	1.393309	0.565099	0.962694
H169	H	0.248965	0.143712	0.000071
H170	H	0.748965	0.643712	0.500071
Br171	Br	0.707464	-0.035742	0.000109
Br172	Br	1.207464	0.464258	0.500109
Br173	Br	0.771111	0.142682	0.819868
Br174	Br	1.271111	0.642682	1.319868
Br175	Br	0.662482	0.171904	0.000026
Br176	Br	1.162482	0.671904	0.500026
H177	H	0.503039	0.146309	0.000057
H178	H	1.003039	0.646309	0.500057
H179	H	0.987408	0.005400	0.796402
H180	H	1.487408	0.505400	1.296402
H181	H	0.772252	-0.162502	0.000108
H182	H	1.272252	0.337498	0.500108
Br183	Br	0.661351	-0.431514	0.000030
Br184	Br	1.161351	0.068486	0.500030
Br185	Br	1.059958	-0.200522	0.000118
Br186	Br	1.559958	0.299478	0.500118
H187	H	0.763920	-0.686128	0.000040
H188	H	1.263920	-0.186128	0.500040
Br189	Br	0.771069	0.142667	0.384285
Br190	Br	1.271069	0.642667	0.884285
Br191	Br	0.771087	0.142674	0.615868
Br192	Br	1.271087	0.642674	1.115868
H193	H	0.537645	-0.013510	0.000118
H194	H	1.037645	0.486490	0.500118
H195	H	0.987396	0.005397	0.639386
H196	H	1.487396	0.505397	1.139386
Br197	Br	1.015519	-0.012477	0.180325
Br198	Br	1.515519	0.487523	0.680325
H199	H	0.987372	0.005389	0.360820
H200	H	1.487372	0.505389	0.860820
Br201	Br	1.061839	-0.081696	0.000150
Br202	Br	1.561839	0.418304	0.500150
H203	H	0.105758	0.142249	0.000083
H204	H	0.605758	0.642249	0.500083
H205	H	0.140380	-0.017574	0.000131
H206	H	0.640380	0.482426	0.500131
Br207	Br	0.310182	-0.039805	0.000140
Br208	Br	0.810182	0.460195	0.500140
Br209	Br	0.771053	0.142663	0.180288
Br210	Br	1.271053	0.642663	0.680288
H211	H	1.089484	-0.329971	0.000117
H212	H	1.589484	0.170029	0.500117
Br213	Br	0.659459	-0.550335	0.000022
Br214	Br	1.159459	-0.050335	0.500022
Br215	Br	1.125284	-0.438275	0.000110
Br216	Br	1.625284	0.061725	0.500110
Br217	Br	1.052060	-0.696787	0.000099
Br218	Br	1.552060	-0.196787	0.500099
H219	H	1.012907	-0.798773	0.000076
H220	H	1.512907	-0.298773	0.500076
H221	H	0.762468	-0.777584	0.000053
H222	H	1.262468	-0.277584	0.500053
Br223	Br	1.122864	-0.589538	0.000095
Br224	Br	1.622864	-0.089538	0.500095
Br225	Br	0.663753	-0.280254	0.000018
Br226	Br	1.163753	0.219746	0.500018
H227	H	0.699545	-0.388565	0.000024
H228	H	1.199545	0.111435	0.500024
H229	H	0.773714	-0.071029	0.000101
H230	H	1.273714	0.428971	0.500101
H231	H	1.087078	-0.481215	0.000098
H232	H	1.587078	0.018785	0.500098
