data_functionalizedCrystal
_audit_creation_method	'MofGen! by Chris Wilmer'
_symmetry_space_group_name_H-M	'P1'
_symmetry_Int_Tables_number	1
_symmetry_cell_setting	triclinic
loop_
_symmetry_equiv_pos_as_xyz
  x,y,z
_cell_length_a	12.759401
_cell_length_b	12.594516
_cell_length_c	12.759393
_cell_angle_alpha	90.030800
_cell_angle_beta	90.018496
_cell_angle_gamma	90.011977
loop_
_atom_site_label
_atom_site_type_symbol
_atom_site_fract_x
_atom_site_fract_y
_atom_site_fract_z
Zn1	Zn	1.606276	-0.423675	0.593987
Zn2	Zn	1.606180	-0.601694	0.418309
Zn3	Zn	1.430578	-0.423730	0.418326
Zn4	Zn	1.430576	-0.601612	0.593951
O5	O	1.518403	-0.512678	0.506143
O6	O	1.753285	-0.447300	0.570691
O7	O	1.582846	-0.578144	0.271291
O8	O	1.453927	-0.274777	0.441650
O9	O	1.753213	-0.578090	0.441621
O10	O	1.583011	-0.274736	0.570707
O11	O	1.453833	-0.447395	0.271303
O12	O	1.283557	-0.447316	0.441615
O13	O	1.453922	-0.577951	0.740977
O14	O	1.283555	-0.578005	0.570646
O15	O	1.583009	-0.447221	0.741003
O16	O	1.582844	-0.750629	0.441586
O17	O	1.453829	-0.750569	0.570629
C18	C	1.245435	-0.512658	0.506129
C19	C	1.128659	-0.512676	0.506148
C20	C	1.518354	-0.789219	0.506125
C21	C	1.518429	-0.907524	0.506152
C22	C	1.073823	-0.580834	0.573223
C23	C	0.964099	-0.580848	0.573234
C24	C	0.964056	-0.444541	0.439087
C25	C	1.073778	-0.444523	0.439081
C26	C	1.073847	-0.659533	0.650669
C27	C	0.964123	-0.659547	0.650681
C28	C	1.588682	-0.976771	0.436041
C29	C	1.614358	-1.047463	0.531933
C30	C	1.492885	-1.047632	0.410321
C31	C	1.544154	-0.976657	0.602095
C32	C	1.422637	-0.976820	0.480418
C33	C	1.448276	-1.047480	0.576377
C34	C	1.792436	-0.512698	0.506158
C35	C	1.909212	-0.512707	0.506165
C36	C	1.518476	-0.512570	0.780177
C37	C	1.518507	-0.512525	0.896954
C38	C	1.518480	-0.235057	0.506185
C39	C	1.518513	-0.116752	0.506202
C40	C	1.518390	-0.512708	0.233176
C41	C	1.518562	-0.512454	0.116400
C42	C	1.585732	-0.444447	0.951831
C43	C	1.585757	-0.444409	1.061555
C44	C	1.451330	-0.580534	1.061515
C45	C	1.451300	-0.580567	0.951793
C46	C	1.663346	-0.365859	0.951855
C47	C	1.663371	-0.365821	1.061580
H48	H	1.118421	-0.389014	0.384469
H49	H	0.919358	-0.389052	0.384484
H50	H	1.740619	-0.395410	0.917820
O51	O	1.710964	-1.084661	0.557987
C52	C	1.819006	-1.238574	0.588030
C53	C	1.709544	-1.196603	0.558533
H54	H	1.817900	-1.329083	0.588460
H55	H	1.841397	-1.208226	0.669201
H56	H	1.878784	-1.209472	0.528189
H57	H	1.649693	-1.225687	0.618304
H58	H	1.687241	-1.226942	0.477336
O59	O	1.569915	-0.939685	0.698898
C60	C	1.525668	-0.934657	0.882418
C61	C	1.496356	-0.976582	0.772850
H62	H	1.466224	-0.964489	0.942241
H63	H	1.525405	-0.844142	0.881671
H64	H	1.607133	-0.964363	0.904466
H65	H	1.414886	-0.946954	0.750734
H66	H	1.496692	-1.067095	0.773655
H67	H	1.107865	-0.737797	0.621386
O68	O	1.659642	-0.939901	0.365358
C69	C	1.790355	-0.984391	0.236344
C70	C	1.710047	-1.026291	0.316365
H71	H	1.831114	-1.054216	0.196696
H72	H	1.851056	-0.933309	0.278314
H73	H	1.748286	-0.934616	0.174726
H74	H	1.752026	-1.076111	0.378004
H75	H	1.649350	-1.077314	0.274323
H76	H	1.744742	-0.387898	1.091358
O77	O	1.109240	-0.633242	0.747829
C78	C	1.063490	-0.585495	0.924902
C79	C	1.023266	-0.615233	0.814917
H80	H	0.994001	-0.570948	0.979178
H81	H	1.113089	-0.510376	0.919786
H82	H	1.113173	-0.653228	0.957182
H83	H	0.973540	-0.547569	0.782572
H84	H	0.973724	-0.690384	0.820098
H85	H	1.388901	-1.078331	0.635758
H86	H	0.930124	-0.630122	0.728032
H87	H	1.471245	-1.078806	0.329257
H88	H	0.934332	-0.741961	0.628749
O89	O	1.326011	-0.939810	0.454204
C90	C	1.189762	-0.933974	0.323515
C91	C	1.299209	-0.975941	0.353074
H92	H	1.168050	-0.963187	0.241759
H93	H	1.190450	-0.843462	0.324432
H94	H	1.129725	-0.964266	0.382515
H95	H	1.359308	-0.945728	0.294103
H96	H	1.298434	-1.066451	0.352191
O97	O	1.385949	-0.646781	0.898646
C98	C	1.252540	-0.781715	0.910190
C99	C	1.326524	-0.706804	0.970507
H100	H	1.204459	-0.830247	0.968263
H101	H	1.300673	-0.837471	0.858830
H102	H	1.197660	-0.732820	0.858809
H103	H	1.381418	-0.755613	1.021945
H104	H	1.278325	-0.651044	1.021800
O105	O	1.386153	-0.646599	1.114950
C106	C	1.326574	-0.706832	1.283964
C107	C	1.400456	-0.631975	1.223584
H108	H	1.338097	-0.695019	1.371805
H109	H	1.344996	-0.792689	1.262452
H110	H	1.241870	-0.688152	1.262325
H111	H	1.485186	-0.650558	1.245190
H112	H	1.381945	-0.546140	1.245101
H113	H	1.641573	-0.283430	0.922098
O114	O	1.628668	-0.272300	1.102034
C115	C	1.563284	-0.096658	1.065655
C116	C	1.602590	-0.202501	1.019699
H117	H	1.542168	-0.040205	0.999109
H118	H	1.627502	-0.059603	1.115919
H119	H	1.491008	-0.111845	1.115971
H120	H	1.674847	-0.187406	0.969335
H121	H	1.538308	-0.239524	0.969494
