data_functionalizedCrystal
_audit_creation_method	'MofGen! by Chris Wilmer'
_symmetry_space_group_name_H-M	'P1'
_symmetry_Int_Tables_number	1
_symmetry_cell_setting	triclinic
loop_
_symmetry_equiv_pos_as_xyz
  x,y,z
_cell_length_a	15.995350
_cell_length_b	15.995350
_cell_length_c	14.472310
_cell_angle_alpha	90.001162
_cell_angle_beta	89.990621
_cell_angle_gamma	83.492375
loop_
_atom_site_label
_atom_site_type_symbol
_atom_site_fract_x
_atom_site_fract_y
_atom_site_fract_z
O1	O	1.110997	0.107921	-0.076758
O2	O	1.610997	0.607921	0.423242
O3	O	0.867221	0.121248	-0.076776
O4	O	1.367221	0.621248	0.423224
O5	O	0.995773	-0.007303	-0.076766
O6	O	1.495773	0.492697	0.423234
O7	O	0.982445	0.236472	-0.076769
O8	O	1.482445	0.736472	0.423231
O9	O	0.995740	-0.007296	0.076916
O10	O	1.495740	0.492704	0.576916
O11	O	0.867188	0.121256	0.076906
O12	O	1.367188	0.621256	0.576906
O13	O	1.110963	0.107928	0.076924
O14	O	1.610963	0.607928	0.576924
Cu15	Cu	0.989073	0.114593	0.090947
Cu16	Cu	1.489073	0.614593	0.590947
Cu17	Cu	0.989112	0.114584	-0.090800
Cu18	Cu	1.489112	0.614584	0.409200
O19	O	0.982412	0.236480	0.076913
O20	O	1.482412	0.736480	0.576913
C21	C	0.836010	0.120701	0.000062
C22	C	1.336010	0.620701	0.500062
C23	C	0.743060	0.119049	0.000055
C24	C	1.243060	0.619049	0.500055
C25	C	0.995205	-0.038494	0.000073
C26	C	1.495205	0.461506	0.500073
C27	C	0.993553	-0.131444	0.000068
C28	C	1.493553	0.368556	0.500068
C29	C	0.405312	0.113117	0.000074
C30	C	0.905312	0.613117	0.500074
C31	C	0.452746	0.021565	0.000418
C32	C	0.952746	0.521565	0.500418
C33	C	0.549436	0.023217	0.000065
C34	C	1.049436	0.523217	0.500065
C35	C	0.572873	0.116060	0.000065
C36	C	1.072873	0.616060	0.500065
C37	C	0.531804	0.161212	-0.087692
C38	C	1.031804	0.661212	0.412308
C39	C	0.435169	0.158912	-0.087759
C40	C	0.935169	0.658912	0.412241
C41	C	0.434792	0.160812	0.087007
C42	C	0.934792	0.660812	0.587007
C43	C	0.531737	0.160790	0.088160
C44	C	1.031737	0.660790	0.588160
C45	C	0.667570	0.117727	0.000057
C46	C	1.167570	0.617727	0.500057
C47	C	0.310614	0.111452	0.000076
C48	C	0.810614	0.611452	0.500076
C49	C	0.987621	-0.469192	0.000071
C50	C	1.487621	0.030808	0.500071
C51	C	0.896069	-0.421758	-0.000281
C52	C	1.396069	0.078242	0.499719
C53	C	0.897721	-0.325068	0.000066
C54	C	1.397721	0.174932	0.500066
C55	C	0.990564	-0.301631	0.000069
C56	C	1.490564	0.198369	0.500069
C57	C	1.035701	-0.342705	0.087831
C58	C	1.535701	0.157295	0.587831
C59	C	1.033401	-0.439340	0.087904
C60	C	1.533401	0.060660	0.587904
C61	C	1.035330	-0.439707	-0.086861
C62	C	1.535330	0.060293	0.413139
C63	C	1.035309	-0.342762	-0.088021
C64	C	1.535309	0.157238	0.411979
C65	C	0.992231	-0.206934	0.000071
C66	C	1.492231	0.293066	0.500071
C67	C	0.985956	-0.563890	0.000075
C68	C	1.485956	-0.063890	0.500075
C69	C	1.142175	0.108476	0.000083
C70	C	1.642175	0.608476	0.500083
C71	C	1.235125	0.110127	0.000084
C72	C	1.735125	0.610127	0.500084
C73	C	0.982980	0.267671	0.000072
C74	C	1.482980	0.767671	0.500072
C75	C	0.984631	0.360621	0.000071
C76	C	1.484631	0.860621	0.500071
N77	N	0.989051	0.114598	0.218778
N78	N	1.489051	0.614598	0.718778
N79	N	0.989140	0.114572	-0.218631
N80	N	1.489140	0.614572	0.281369
C81	C	0.989111	0.114581	0.592869
C82	C	1.489111	0.614581	1.092869
C83	C	0.920095	0.183135	0.553698
C84	C	1.420095	0.683135	1.053698
C85	C	0.920254	0.183385	0.446610
C86	C	1.420254	0.683385	0.946610
C87	C	0.989081	0.114590	0.407278
C88	C	1.489081	0.614590	0.907278
C89	C	1.076445	0.133671	0.446122
C90	C	1.576445	0.633671	0.946122
C91	C	1.076057	0.134159	0.553243
C92	C	1.576057	0.634159	1.053243
C93	C	0.971542	0.026741	0.553398
C94	C	1.471542	0.526741	1.053398
C95	C	0.969538	0.027327	0.446270
C96	C	1.469538	0.527327	0.946270
C97	C	0.989069	0.114593	0.302390
C98	C	1.489069	0.614593	0.802390
C99	C	0.989128	0.114579	0.697757
C100	C	1.489128	0.614579	1.197757
H101	H	0.577852	-0.012275	0.062973
H102	H	1.077852	0.487725	0.562973
H103	H	1.129018	0.086196	0.579154
H104	H	1.629018	0.586196	1.079154
N105	N	0.833793	0.168331	0.587851
N106	N	1.333793	0.668331	1.087851
H107	H	0.790445	0.213004	0.561910
H108	H	1.290445	0.713004	1.061910
H109	H	0.820624	0.111020	0.566950
H110	H	1.320624	0.611020	1.066950
H111	H	0.559040	0.127830	0.153082
H112	H	1.059040	0.627830	0.653082
H113	H	0.414242	0.130885	0.153524
H114	H	0.914242	0.630885	0.653524
N115	N	1.096558	0.219011	0.586345
N116	N	1.596558	0.719011	1.086345
H117	H	1.153948	0.229324	0.562816
H118	H	1.653948	0.729324	1.062816
H119	H	1.052901	0.264335	0.562265
H120	H	1.552901	0.764335	1.062265
H121	H	1.005412	-0.460250	-0.153379
H122	H	1.505412	0.039750	0.346621
H123	H	0.547101	0.228494	0.093461
H124	H	1.047101	0.728494	0.593461
H125	H	0.560193	0.129845	-0.153002
H126	H	1.060193	0.629845	0.346998
H127	H	1.103909	-0.328579	0.091097
H128	H	1.603909	0.171421	0.591097
H129	H	1.129029	0.085068	0.420643
H130	H	1.629029	0.585068	0.920643
H131	H	0.403031	0.228313	0.087600
H132	H	0.903031	0.728313	0.587600
H133	H	0.862239	-0.296649	-0.062846
H134	H	1.362239	0.203351	0.437154
N135	N	0.994131	-0.305107	0.174332
N136	N	1.494131	0.194893	0.674332
H137	H	0.971843	-0.350921	0.211978
H138	H	1.471843	0.149079	0.711978
H139	H	1.036658	-0.277720	0.212036
H140	H	1.536658	0.222280	0.712036
N141	N	0.934771	0.269003	0.589294
N142	N	1.434771	0.769003	1.089294
H143	H	0.985928	0.263688	0.630689
H144	H	1.485928	0.763688	1.130689
H145	H	0.944211	0.306955	0.535419
H146	H	1.444211	0.806955	1.035419
H147	H	1.103014	-0.327400	-0.093317
H148	H	1.603014	0.172600	0.406683
H149	H	1.002307	-0.315516	-0.152945
H150	H	1.502307	0.184484	0.347055
H151	H	1.000459	-0.457639	0.153505
H152	H	1.500459	0.042361	0.653505
H153	H	0.931473	0.248569	0.420976
H154	H	1.431473	0.748569	0.920976
N155	N	0.428201	-0.026908	0.083784
N156	N	0.928201	0.473092	0.583784
H157	H	0.386092	0.010004	0.122138
H158	H	0.886092	0.510004	0.622138
H159	H	0.402266	-0.078387	0.062776
H160	H	0.902266	0.421613	0.562776
N161	N	0.392427	0.247934	-0.093043
N162	N	0.892427	0.747934	0.406957
H163	H	0.355713	0.260232	-0.036786
H164	H	0.855713	0.760232	0.463214
H165	H	0.436430	0.288455	-0.095352
H166	H	0.936430	0.788455	0.404648
H167	H	0.859490	-0.440293	-0.063217
H168	H	1.359490	0.059707	0.436783
H169	H	1.092297	0.197002	0.419285
H170	H	1.592297	0.697002	0.919285
H171	H	0.859626	-0.441349	0.062299
H172	H	1.359626	0.058651	0.562299
N173	N	0.586352	-0.024112	-0.083416
N174	N	1.086352	0.475888	0.416584
H175	H	0.616196	0.014919	-0.123407
H176	H	1.116196	0.514919	0.376593
H177	H	0.627752	-0.072839	-0.062576
H178	H	1.127752	0.427161	0.437424
H179	H	0.861973	-0.297200	0.063079
H180	H	1.361973	0.202800	0.563079
N181	N	1.122430	-0.482065	0.093188
N182	N	1.622430	0.017935	0.593188
H183	H	1.162994	-0.438098	0.095464
H184	H	1.662994	0.061902	0.595464
H185	H	1.129118	-0.517947	0.150710
H186	H	1.629118	-0.017947	0.650710
H187	H	1.102831	-0.471468	-0.087449
H188	H	1.602831	0.028532	0.412551
H189	H	0.855314	0.172016	0.420349
H190	H	1.355314	0.672016	0.920349
N191	N	0.888975	0.002443	0.589215
N192	N	1.388975	0.502443	1.089215
H193	H	0.862121	0.048136	0.631397
H194	H	1.362121	0.548136	1.131397
H195	H	0.850194	-0.004971	0.535499
H196	H	1.350194	0.495029	1.035499
H197	H	0.905272	0.012845	0.420883
H198	H	1.405272	0.512845	0.920883
N199	N	1.038201	-0.040834	0.586968
N200	N	1.538201	0.459166	1.086968
H201	H	1.010854	-0.084082	0.623639
H202	H	1.510854	0.415918	1.123639
H203	H	1.068808	-0.068903	0.532179
H204	H	1.568808	0.431097	1.032179
H205	H	1.016541	-0.026079	0.419500
H206	H	1.516541	0.473921	0.919500
H207	H	0.416874	0.125979	-0.153359
H208	H	0.916874	0.625979	0.346641
N209	N	0.426789	-0.026693	-0.082471
N210	N	0.926789	0.473307	0.417529
H211	H	0.441302	0.003000	-0.140927
H212	H	0.941302	0.503000	0.359073
H213	H	0.457547	-0.085427	-0.081648
H214	H	0.957547	0.414573	0.418352
N215	N	0.550521	0.251559	-0.092032
N216	N	1.050521	0.751559	0.407968
H217	H	0.585886	0.264119	-0.037021
H218	H	1.085886	0.764119	0.462979
H219	H	0.582181	0.260835	-0.150852
H220	H	1.082181	0.760835	0.349148
