data_functionalizedCrystal
_audit_creation_method	'MofGen! by Chris Wilmer'
_symmetry_space_group_name_H-M	'P1'
_symmetry_Int_Tables_number	1
_symmetry_cell_setting	triclinic
loop_
_symmetry_equiv_pos_as_xyz
  x,y,z
_cell_length_a	6.817900
_cell_length_b	15.866870
_cell_length_c	14.125465
_cell_angle_alpha	113.228420
_cell_angle_beta	100.398878
_cell_angle_gamma	102.655915
loop_
_atom_site_label
_atom_site_type_symbol
_atom_site_fract_x
_atom_site_fract_y
_atom_site_fract_z
V1	V	-4.011086	-0.131684	-0.346677
O2	O	-3.978431	0.007174	-0.291722
O3	O	-3.982395	-0.261921	-0.390814
O4	O	-3.946868	-0.129287	-0.476657
O5	O	-4.014203	-0.126378	-0.205284
V6	V	-4.494210	-0.115118	-0.324116
O7	O	-4.273220	-0.168021	-0.396168
O8	O	-4.682273	-0.078781	-0.274625
O9	O	-4.299695	0.015119	-0.279979
O10	O	-4.644262	-0.253977	-0.379072
O11	O	-4.608490	-0.120424	-0.465510
O12	O	-4.335221	-0.117516	-0.194136
C13	C	-3.832702	-0.293681	-0.397345
C14	C	-3.890424	-0.400149	-0.434299
C15	C	-3.921038	-0.683174	-0.091525
C16	C	-3.975283	-0.783222	-0.126281
C17	C	-4.038973	-0.810065	-0.312008
C18	C	-3.984723	-0.710017	-0.277268
C19	C	-3.925761	-0.646580	-0.167026
C20	C	-3.989445	-0.673422	-0.352768
C21	C	-3.935210	-0.573384	-0.318031
C22	C	-3.876253	-0.509940	-0.207793
C23	C	-3.871526	-0.546541	-0.132288
C24	C	-4.048422	-0.736862	-0.463011
C25	C	-4.053145	-0.700267	-0.538511
C26	C	-3.998894	-0.600227	-0.503774
C27	C	-3.939937	-0.536783	-0.393536
C28	C	-4.003621	-0.563626	-0.579279
C29	C	-3.949386	-0.463587	-0.544541
C30	C	-3.885702	-0.436744	-0.358798
C31	C	-3.787383	-0.124492	-0.506846
C32	C	-3.816292	-0.123394	-0.613411
C33	C	-3.869280	-0.121380	-0.808519
C34	C	-4.055384	-0.125420	-0.862273
C35	C	-4.084869	-0.124299	-0.970839
C36	C	-3.839787	-0.122501	-0.699944
C37	C	-4.112731	0.046874	-0.273447
C38	C	-4.034246	0.153341	-0.236501
C39	C	-4.158049	-0.122313	-0.163944
C40	C	-4.108378	-0.123406	-0.057376
H41	H	-4.101166	-0.751931	-0.628272
H42	H	-4.192575	-0.129729	-0.826763
H43	H	-3.732108	-0.117082	-0.844033
H44	H	-3.837657	-0.385088	-0.269027
H45	H	-4.051655	-0.615292	-0.669039
O46	O	-3.823902	-0.412763	-0.174003
C47	C	-3.901748	-0.266454	-0.079332
C48	C	-3.961292	-0.376505	-0.117557
H49	H	-4.012768	-0.237103	-0.033669
H50	H	-3.915342	-0.251134	-0.152193
H51	H	-3.732928	-0.229641	-0.023769
H52	H	-4.130115	-0.413392	-0.173100
H53	H	-3.947550	-0.391753	-0.044646
O54	O	-3.814401	-0.485047	-0.025160
C55	C	-3.756869	-0.468964	0.155413
C56	C	-3.821624	-0.538714	0.034132
H57	H	-3.762644	-0.512325	0.203388
H58	H	-3.869874	-0.425221	0.171351
H59	H	-3.589988	-0.417695	0.181291
H60	H	-3.988462	-0.590042	0.008171
H61	H	-3.708479	-0.582388	0.018262
H62	H	-3.872993	-0.631518	-0.001754
H63	H	-3.971427	-0.813012	-0.064791
O64	O	-4.096548	-0.871796	-0.419074
C65	C	-4.368021	-1.004908	-0.572313
C66	C	-4.303078	-0.935076	-0.451049
H67	H	-4.535020	-1.056074	-0.598207
H68	H	-4.255198	-1.048748	-0.588242
H69	H	-4.361960	-0.961544	-0.620282
H70	H	-4.309153	-0.978364	-0.403000
H71	H	-4.415912	-0.891234	-0.435203
O72	O	-4.100734	-0.834024	-0.496696
C73	C	-3.987893	-0.965593	-0.489349
C74	C	-3.928360	-0.855545	-0.451139
H75	H	-3.848579	-0.983026	-0.452515
H76	H	-4.030752	-1.004693	-0.581104
H77	H	-4.128503	-0.990526	-0.462658
H78	H	-3.787713	-0.830525	-0.477754
H79	H	-3.885633	-0.816510	-0.359386
H80	H	-3.953263	-0.433793	-0.606022
