data_functionalizedCrystal
_audit_creation_method	'MofGen! by Chris Wilmer'
_symmetry_space_group_name_H-M	'P1'
_symmetry_Int_Tables_number	1
_symmetry_cell_setting	triclinic
loop_
_symmetry_equiv_pos_as_xyz
  x,y,z
_cell_length_a	10.654562
_cell_length_b	15.944493
_cell_length_c	9.130313
_cell_angle_alpha	90.004626
_cell_angle_beta	89.996930
_cell_angle_gamma	83.982574
loop_
_atom_site_label
_atom_site_type_symbol
_atom_site_fract_x
_atom_site_fract_y
_atom_site_fract_z
O1	O	1.666261	0.118026	-0.121875
O2	O	1.300636	0.129256	-0.121854
O3	O	1.493471	0.001421	-0.121877
O4	O	1.473426	0.245861	-0.121852
O5	O	1.493468	0.001425	0.121722
O6	O	1.300633	0.129259	0.121744
O7	O	1.666259	0.118030	0.121724
Cu8	Cu	1.483446	0.123645	0.143977
Cu9	Cu	1.483449	0.123641	-0.144107
O10	O	1.473424	0.245864	0.121747
C11	C	1.253848	0.128431	-0.000053
C12	C	1.114438	0.125957	-0.000046
C13	C	1.048921	0.124805	0.132728
C14	C	0.917930	0.122488	0.132703
C15	C	0.917983	0.122478	-0.132881
C16	C	1.048973	0.124789	-0.132855
C17	C	1.048889	0.124815	0.286062
C18	C	0.917898	0.122497	0.286037
C19	C	1.492650	-0.029877	-0.000084
C20	C	1.490194	-0.123140	-0.000102
C21	C	1.603701	-0.358239	-0.000081
C22	C	1.542492	-0.409165	-0.120184
C23	C	1.485643	-0.293887	-0.000084
C24	C	1.542462	-0.409138	0.119986
C25	C	1.481256	-0.458822	-0.000060
C26	C	1.424466	-0.343585	-0.120286
C27	C	1.424453	-0.343554	0.119991
C28	C	1.363158	-0.394447	-0.000141
C29	C	1.488174	-0.198872	-0.000099
C30	C	1.478715	-0.553834	-0.000056
C31	C	1.713047	0.118855	-0.000081
C32	C	1.852456	0.121328	-0.000097
C33	C	1.474244	0.277162	-0.000049
C34	C	1.476700	0.370425	-0.000040
N35	N	1.483453	0.123647	0.346600
N36	N	1.483451	0.123632	-0.346730
C37	C	1.568862	0.067062	0.423241
C38	C	1.568859	0.067051	0.576578
C39	C	1.398033	0.180220	0.576618
C40	C	1.398032	0.180225	0.423284
C41	C	1.667490	0.001727	0.423220
C42	C	1.667487	0.001717	0.576557
H43	H	0.864665	0.121527	-0.241010
C44	C	1.304091	0.242472	0.338975
H45	H	1.316319	0.234372	0.236672
H46	H	1.317713	0.298616	0.364126
H47	H	1.220279	0.232821	0.364100
C48	C	1.741070	-0.336319	-0.000247
H49	H	1.782830	-0.358895	-0.085697
H50	H	1.783411	-0.359744	0.084208
H51	H	1.741711	-0.276785	0.000612
C52	C	1.112436	0.046399	0.365587
H53	H	1.201324	0.047977	0.365613
H54	H	1.092405	-0.003028	0.316545
H55	H	1.082794	0.045884	0.463683
C56	C	1.087756	0.207565	0.350361
H57	H	1.014421	0.242814	0.378983
H58	H	1.132479	0.235620	0.278498
H59	H	1.140335	0.195308	0.433295
C60	C	1.304085	0.242456	0.660975
H61	H	1.316321	0.234352	0.763273
H62	H	1.220280	0.232812	0.635846
H63	H	1.317714	0.298607	0.635861
H64	H	0.889121	0.061238	0.333610
H65	H	0.870842	0.180550	0.344908
C66	C	1.790296	0.029366	0.358950
H67	H	1.786104	0.028434	0.255033
H68	H	1.859981	-0.008175	0.391060
H69	H	1.800552	0.084906	0.391089
H70	H	1.646903	-0.062837	0.381594
H71	H	1.374638	-0.314882	0.221540
C72	C	1.627383	-0.080707	0.640794
H73	H	1.609530	-0.117408	0.563296
H74	H	1.554081	-0.068374	0.699368
H75	H	1.693817	-0.107197	0.699335
H76	H	1.592351	-0.437822	-0.221729
H77	H	1.763807	0.016112	0.618170
H78	H	1.374638	-0.315056	-0.221932
C79	C	1.121039	0.126048	-0.278906
H80	H	1.063285	0.125029	-0.358001
H81	H	1.181717	0.078053	-0.284413
H82	H	1.162559	0.175853	-0.284420
H83	H	1.261387	-0.410506	-0.000201
C84	C	1.609836	-0.447818	0.257155
H85	H	1.695239	-0.435658	0.256990
H86	H	1.607101	-0.507175	0.256652
H87	H	1.568745	-0.424466	0.342448
