data_functionalizedCrystal
_audit_creation_method	'MofGen! by Chris Wilmer'
_symmetry_space_group_name_H-M	'P1'
_symmetry_Int_Tables_number	1
_symmetry_cell_setting	triclinic
loop_
_symmetry_equiv_pos_as_xyz
  x,y,z
_cell_length_a	18.101395
_cell_length_b	12.759395
_cell_length_c	12.759395
_cell_angle_alpha	89.992557
_cell_angle_beta	90.011141
_cell_angle_gamma	89.969542
loop_
_atom_site_label
_atom_site_type_symbol
_atom_site_fract_x
_atom_site_fract_y
_atom_site_fract_z
Zn1	Zn	-0.294962	-1.605989	0.594055
Zn2	Zn	0.205038	-1.105989	1.094055
Zn3	Zn	-0.418775	-1.605877	0.418369
Zn4	Zn	0.081225	-1.105877	0.918369
Zn5	Zn	-0.294951	-1.430335	0.418385
Zn6	Zn	0.205049	-0.930335	0.918385
Zn7	Zn	-0.418765	-1.430230	0.594001
Zn8	Zn	0.081235	-0.930230	1.094001
O9	O	-0.356863	-1.518108	0.506203
O10	O	0.143137	-1.018108	1.006203
O11	O	-0.311395	-1.752995	0.570766
O12	O	0.188605	-1.252995	1.070766
O13	O	-0.402349	-1.582588	0.271350
O14	O	0.097651	-1.082588	0.771350
O15	O	-0.191319	-1.453727	0.441717
O16	O	0.308681	-0.953727	0.941717
O17	O	-0.402360	-1.752913	0.441690
O18	O	0.097640	-1.252913	0.941690
O19	O	-0.191327	-1.582779	0.570781
O20	O	0.308673	-1.082779	1.070781
O21	O	-0.311376	-1.453618	0.271362
O22	O	0.188624	-0.953618	0.771362
O23	O	-0.311366	-1.283300	0.441665
O24	O	0.188634	-0.783300	0.941665
O25	O	-0.402342	-1.453548	0.741029
O26	O	0.097658	-0.953548	1.241029
O27	O	-0.402331	-1.283222	0.570689
O28	O	0.097669	-0.783222	1.070689
O29	O	-0.311385	-1.582677	0.741069
O30	O	0.188615	-1.082677	1.241069
O31	O	-0.522407	-1.582486	0.441638
O32	O	-0.022407	-1.082486	0.941638
O33	O	-0.522399	-1.453438	0.570674
O34	O	-0.022399	-0.953438	1.070674
C35	C	-0.356847	-1.245140	0.506173
C36	C	0.143153	-0.745140	1.006173
C37	C	-0.356857	-1.128363	0.506186
C38	C	0.143143	-0.628363	1.006186
C39	C	-0.451746	-0.908898	0.640356
C40	C	0.048254	-0.408898	1.140356
C41	C	-0.499178	-0.963749	0.707421
C42	C	0.000822	-0.463749	1.207421
C43	C	-0.499171	-1.073471	0.707410
C44	C	0.000829	-0.573471	1.207410
C45	C	-0.451728	-1.128344	0.640325
C46	C	0.048272	-0.628344	1.140325
C47	C	-0.404297	-1.073493	0.573261
C48	C	0.095703	-0.573493	1.073261
C49	C	-0.404307	-0.963769	0.573281
C50	C	0.095693	-0.463769	1.073281
C51	C	-0.309426	-1.073512	0.439122
C52	C	0.190574	-0.573512	0.939122
C53	C	-0.309428	-0.963791	0.439136
C54	C	0.190572	-0.463791	0.939136
C55	C	-0.261983	-1.128386	0.372037
C56	C	0.238017	-0.628386	0.872037
C57	C	-0.214546	-1.073535	0.304976
C58	C	0.285454	-0.573535	0.804976
C59	C	-0.214555	-0.963806	0.304991
C60	C	0.285445	-0.463806	0.804991
C61	C	-0.261996	-0.908940	0.372072
C62	C	0.238004	-0.408940	0.872072
C63	C	-0.549274	-1.517967	0.506172
C64	C	-0.049274	-1.017967	1.006172
C65	C	-0.631588	-1.518003	0.506194
C66	C	-0.131588	-1.018003	1.006194
C67	C	-0.930679	-1.518234	0.506250
C68	C	-0.430679	-1.018234	1.006250
C69	C	-0.899379	-1.437229	0.587638
C70	C	-0.399379	-0.937229	1.087638
C71	C	-0.813761	-1.436844	0.587383
C72	C	-0.313761	-0.936844	1.087383
C73	C	-0.782296	-1.518119	0.506223
C74	C	-0.282296	-1.018119	1.006223
C75	C	-0.813425	-1.488166	0.395496
C76	C	-0.313425	-0.988166	0.895496
C77	C	-0.899070	-1.487644	0.395983
C78	C	-0.399070	-0.987644	0.895983
C79	C	-0.899029	-1.629369	0.534615
C80	C	-0.399029	-1.129369	1.034615
C81	C	-0.813378	-1.628715	0.537043
C82	C	-0.313378	-1.128715	1.037043
C83	C	-0.698437	-1.518056	0.506201
C84	C	-0.198437	-1.018056	1.006201
C85	C	-1.014538	-1.518294	0.506265
C86	C	-0.514538	-1.018294	1.006265
C87	C	-0.163701	-1.518277	0.506257
C88	C	0.336299	-1.018277	1.006257
C89	C	-0.081387	-1.518350	0.506280
C90	C	0.418613	-1.018350	1.006280
C91	C	-0.356863	-1.518113	0.780236
C92	C	0.143137	-1.018113	1.280236
C93	C	-0.356864	-1.518116	0.897013
C94	C	0.143136	-1.018116	1.397013
C95	C	-0.356876	-0.792141	0.506226
C96	C	0.143124	-0.292141	1.006226
C97	C	-0.356871	-0.908918	0.506221
C98	C	0.143129	-0.408918	1.006221
C99	C	-0.262156	-1.652588	0.897074
C100	C	0.237844	-1.152588	1.397074
C101	C	-0.214806	-1.719824	0.951965
C102	C	0.285194	-1.219824	1.451965
C103	C	-0.214808	-1.719820	1.061686
C104	C	0.285192	-1.219820	1.561686
C105	C	-0.262164	-1.652571	1.116519
C106	C	0.237836	-1.152571	1.616519
C107	C	-0.309514	-1.585335	1.061628
C108	C	0.190486	-1.085335	1.561628
C109	C	-0.309509	-1.585348	0.951904
C110	C	0.190491	-1.085348	1.451904
C111	C	-0.404217	-1.450859	1.061567
C112	C	0.095783	-0.950859	1.561567
C113	C	-0.404220	-1.450866	0.951845
C114	C	0.095780	-0.950866	1.451845
C115	C	-0.451573	-1.383609	1.116400
C116	C	0.048427	-0.883609	1.616400
C117	C	-0.498928	-1.316377	1.061509
C118	C	0.001072	-0.816377	1.561509
C119	C	-0.498925	-1.316385	0.951780
C120	C	0.001075	-0.816385	1.451780
C121	C	-0.451570	-1.383630	0.896954
C122	C	0.048430	-0.883630	1.396954
C123	C	-0.356876	-1.518095	1.233235
C124	C	0.143124	-1.018095	1.733235
C125	C	-0.356867	-1.518095	1.116458
C126	C	0.143133	-1.018095	1.616458
H127	H	-0.451750	-0.819557	0.640383
H128	H	0.048250	-0.319557	1.140383
H129	H	-0.262005	-0.819599	0.372095
H130	H	0.237995	-0.319599	0.872095
H131	H	-0.793334	-1.354467	0.568595
H132	H	-0.293334	-0.854467	1.068595
H133	H	-0.920962	-1.355353	0.569086
H134	H	-0.420962	-0.855353	1.069086
H135	H	-0.793032	-1.651303	0.618532
H136	H	-0.293032	-1.151303	1.118532
F137	F	-0.164075	-0.905438	0.233604
F138	F	0.335925	-0.405438	0.733604
H139	H	-0.537807	-0.919059	0.762037
H140	H	-0.037807	-0.419059	1.262037
H141	H	-0.262156	-1.652608	0.807732
H142	H	0.237844	-1.152608	1.307732
F143	F	-0.164403	-1.791366	1.120107
F144	F	0.335597	-1.291366	1.620107
F145	F	-0.164394	-1.791372	0.893601
F146	F	0.335606	-1.291372	1.393601
H147	H	-0.919944	-1.455780	0.670006
H148	H	-0.419944	-0.955780	1.170006
F149	F	-0.549656	-1.131849	0.778782
F150	F	-0.049656	-0.631849	1.278782
F151	F	-0.785372	-1.711776	0.465216
F152	F	-0.285372	-1.211776	0.965216
H153	H	-0.262155	-1.652564	1.205860
H154	H	0.237845	-1.152564	1.705860
H155	H	-0.451733	-1.217685	0.640313
H156	H	0.048267	-0.717685	1.140313
F157	F	-0.451565	-1.383649	0.780178
F158	F	0.048435	-0.883649	1.280178
H159	H	-0.451569	-1.383607	1.205741
H160	H	0.048431	-0.883607	1.705741
H161	H	-0.537478	-1.261623	1.106162
H162	H	-0.037478	-0.761623	1.606162
F163	F	-0.925493	-1.708257	0.457148
F164	F	-0.425493	-1.208257	0.957148
F165	F	-0.786248	-1.461332	0.694698
F166	F	-0.286248	-0.961332	1.194698
F167	F	-0.549319	-1.244816	0.893369
F168	F	-0.049319	-0.744816	1.393369
H169	H	-0.261984	-1.217727	0.372028
H170	H	0.238016	-0.717727	0.872028
H171	H	-0.919108	-1.406405	0.371956
H172	H	-0.419108	-0.906405	0.871956
F173	F	-0.164064	-1.131940	0.233583
F174	F	0.335936	-0.631940	0.733583
H175	H	-0.919776	-1.544086	0.333276
H176	H	-0.419776	-1.044086	0.833276
H177	H	-0.793043	-1.545311	0.333203
H178	H	-0.293043	-1.045311	0.833203
F179	F	-0.927214	-1.665070	0.638352
F180	F	-0.427214	-1.165070	1.138352
F181	F	-0.785471	-1.383104	0.363527
F182	F	-0.285471	-0.883104	0.863527
