data_functionalizedCrystal
_audit_creation_method	'MofGen! by Chris Wilmer'
_symmetry_space_group_name_H-M	'P1'
_symmetry_Int_Tables_number	1
_symmetry_cell_setting	triclinic
loop_
_symmetry_equiv_pos_as_xyz
  x,y,z
_cell_length_a	12.827893
_cell_length_b	13.897448
_cell_length_c	12.827885
_cell_angle_alpha	89.967534
_cell_angle_beta	89.980728
_cell_angle_gamma	90.017663
loop_
_atom_site_label
_atom_site_type_symbol
_atom_site_fract_x
_atom_site_fract_y
_atom_site_fract_z
Zn1	Zn	1.597653	-0.383967	-0.590831
Zn2	Zn	1.597540	-0.545294	-0.416083
Zn3	Zn	1.422894	-0.384015	-0.416104
Zn4	Zn	1.422873	-0.545222	-0.590783
O5	O	1.510240	-0.464624	-0.503450
O6	O	1.743874	-0.405378	-0.567661
O7	O	1.574335	-0.523950	-0.269850
O8	O	1.446133	-0.249027	-0.439311
O9	O	1.743791	-0.523904	-0.439275
O10	O	1.574527	-0.248992	-0.567681
O11	O	1.446023	-0.405459	-0.269865
O12	O	1.276655	-0.405389	-0.439265
O13	O	1.446096	-0.523781	-0.737026
O14	O	1.276639	-0.523827	-0.567601
O15	O	1.574506	-0.405308	-0.737060
O16	O	1.574314	-0.680266	-0.439229
O17	O	1.445986	-0.680213	-0.567580
C18	C	1.238730	-0.464606	-0.503430
C19	C	1.122577	-0.464621	-0.503447
C20	C	1.070812	-0.523320	-0.566853
C21	C	0.950762	-0.523337	-0.566872
C22	C	1.510164	-0.715239	-0.503420
C23	C	1.510227	-0.822453	-0.503442
C24	C	1.510336	-1.018748	-0.503508
C25	C	1.510272	-0.909515	-0.503474
C26	C	1.782810	-0.464644	-0.503471
C27	C	1.898963	-0.464652	-0.503480
C28	C	1.510311	-0.464531	-0.776021
C29	C	1.510341	-0.464491	-0.892174
C30	C	1.510345	-0.213031	-0.503504
C31	C	1.510390	-0.105817	-0.503526
C32	C	1.446902	-0.405807	-1.064011
C33	C	1.446869	-0.405846	-0.943960
C34	C	1.510229	-0.464648	-0.231940
C35	C	1.510401	-0.464416	-0.115788
H36	H	1.078018	-0.414376	-0.449180
O37	O	1.382107	-0.345995	-1.117308
C38	C	1.323140	-0.291348	-1.285554
C39	C	1.396557	-0.359152	-1.225329
H40	H	1.334814	-0.301947	-1.372900
H41	H	1.238820	-0.308270	-1.264228
H42	H	1.341489	-0.213571	-1.264108
H43	H	1.378303	-0.436952	-1.246742
H44	H	1.480856	-0.342148	-1.246660
O45	O	1.382107	-0.346013	-0.890687
C46	C	1.322948	-0.291570	-0.722459
C47	C	1.396364	-0.359365	-0.782662
H48	H	1.334433	-0.302356	-0.635110
H49	H	1.341319	-0.213746	-0.743796
H50	H	1.238675	-0.308467	-0.743913
H51	H	1.480661	-0.342555	-0.761240
H52	H	1.377902	-0.437169	-0.761320
H53	H	0.906245	-0.573593	-0.621154
H54	H	0.943473	-0.414399	-0.449188
O55	O	1.575320	-0.524219	-0.945323
C56	C	1.716289	-0.537057	-1.068729
C57	C	1.642781	-0.469308	-1.008577
H58	H	1.770835	-0.492690	-1.119901
H59	H	1.764150	-0.581197	-1.011105
H60	H	1.668241	-0.587454	-1.119770
H61	H	1.690748	-0.418853	-0.957534
H62	H	1.594916	-0.425235	-1.066258
H63	H	1.564745	-0.514619	-1.071239
H64	H	1.115371	-0.573557	-0.621128
