data_functionalizedCrystal
_audit_creation_method	'MofGen! by Chris Wilmer'
_symmetry_space_group_name_H-M	'P1'
_symmetry_Int_Tables_number	1
_symmetry_cell_setting	triclinic
loop_
_symmetry_equiv_pos_as_xyz
  x,y,z
_cell_length_a	14.519731
_cell_length_b	14.519731
_cell_length_c	15.186229
_cell_angle_alpha	89.996550
_cell_angle_beta	89.998303
_cell_angle_gamma	96.311147
loop_
_atom_site_label
_atom_site_type_symbol
_atom_site_fract_x
_atom_site_fract_y
_atom_site_fract_z
O1	O	-0.120982	1.223863	-0.073220
O2	O	0.212351	1.557197	0.260114
O3	O	0.545684	1.890530	0.593447
O4	O	-0.135198	0.955390	-0.073220
O5	O	0.198135	1.288723	0.260114
O6	O	0.531468	1.622057	0.593447
O7	O	0.006146	1.096735	-0.073226
O8	O	0.339480	1.430068	0.260107
O9	O	0.672813	1.763401	0.593441
O10	O	-0.262327	1.082519	-0.073213
O11	O	0.071006	1.415852	0.260120
O12	O	0.404340	1.749185	0.593453
O13	O	0.006148	1.096725	0.073231
O14	O	0.339482	1.430059	0.406565
O15	O	0.672815	1.763392	0.739898
O16	O	-0.135196	0.955381	0.073238
O17	O	0.198137	1.288714	0.406571
O18	O	0.531470	1.622047	0.739904
O19	O	-0.120980	1.223854	0.073238
O20	O	0.212353	1.557187	0.406571
O21	O	0.545686	1.890520	0.739904
Zn22	Zn	-0.128088	1.089616	0.096491
Zn23	Zn	0.205245	1.422949	0.429824
Zn24	Zn	0.538579	1.756282	0.763158
Zn25	Zn	-0.128091	1.089628	-0.096473
Zn26	Zn	0.205243	1.422962	0.236861
Zn27	Zn	0.538576	1.756295	0.570194
O28	O	-0.262325	1.082509	0.073244
O29	O	0.071008	1.415843	0.406577
O30	O	0.404342	1.749176	0.739911
C31	C	-0.134531	0.921026	0.000009
C32	C	0.198802	1.254359	0.333342
C33	C	0.532136	1.587693	0.666676
C34	C	-0.132535	0.818645	0.000008
C35	C	0.200798	1.151979	0.333342
C36	C	0.534132	1.485312	0.666675
C37	C	-0.130913	0.735501	0.000005
C38	C	0.202420	1.068835	0.333338
C39	C	0.535753	1.402168	0.666671
C40	C	-0.128887	0.631192	0.000004
C41	C	0.204447	0.964526	0.333338
C42	C	0.537780	1.297859	0.666671
C43	C	-0.127278	0.548053	0.000004
C44	C	0.206055	0.881386	0.333338
C45	C	0.539388	1.214720	0.666671
C46	C	-0.125252	0.443738	0.000002
C47	C	0.208081	0.777071	0.333336
C48	C	0.541415	1.110404	0.666669
C49	C	-0.296685	1.083180	0.000017
C50	C	0.036648	1.416513	0.333350
C51	C	0.369981	1.749847	0.666684
C52	C	-0.399066	1.085176	0.000022
C53	C	-0.065732	1.418509	0.333355
C54	C	0.267601	1.751843	0.666688
C55	C	-0.482210	1.086798	0.000018
C56	C	-0.148877	1.420131	0.333352
C57	C	0.184457	1.753465	0.666685
C58	C	-0.586519	1.088825	0.000010
C59	C	-0.253186	1.422158	0.333343
C60	C	0.080148	1.755491	0.666676
C61	C	-0.669658	1.090433	0.000003
C62	C	-0.336325	1.423766	0.333336
C63	C	-0.002991	1.757100	0.666669
C64	C	-0.773974	1.092459	-0.000004
C65	C	-0.440640	1.425793	0.333329
C66	C	-0.107307	1.759126	0.666663
C67	C	0.040507	1.096064	-0.000001
C68	C	0.373840	1.429397	0.333333
C69	C	0.707173	1.762730	0.666666
C70	C	0.142887	1.094068	-0.000011
C71	C	0.476220	1.427401	0.333322
C72	C	0.809554	1.760734	0.666655
C73	C	-0.121648	1.258218	0.000007
C74	C	0.211686	1.591551	0.333341
C75	C	0.545019	1.924885	0.666674
C76	C	-0.123643	1.360598	0.000002
C77	C	0.209690	1.693932	0.333336
C78	C	0.543023	2.027265	0.666669
N79	N	-0.128086	1.089614	0.228184
N80	N	0.205248	1.422947	0.561517
N81	N	0.538581	1.756281	0.894850
N82	N	-0.128086	1.089637	-0.228165
N83	N	0.205248	1.422971	0.105168
N84	N	0.538581	1.756304	0.438501
C85	C	-0.065519	1.152223	0.453904
C86	C	0.267814	1.485556	0.787237
C87	C	0.601147	1.818889	1.120570
C88	C	-0.065517	1.152226	0.546093
C89	C	0.267816	1.485559	0.879427
C90	C	0.601149	1.818892	1.212760
C91	C	-0.190655	1.027022	0.546108
C92	C	0.142678	1.360355	0.879441
C93	C	0.476012	1.693688	1.212775
C94	C	-0.190652	1.027015	0.453920
C95	C	0.142681	1.360349	0.787253
C96	C	0.476015	1.693682	1.120587
C97	C	-0.128085	1.089621	0.407820
C98	C	0.205248	1.422954	0.741154
C99	C	0.538581	1.756288	1.074487
C100	C	-0.128086	1.089630	0.592198
C101	C	0.205247	1.422964	0.925531
C102	C	0.538581	1.756297	1.258865
C103	C	-0.128084	1.089633	0.692154
C104	C	0.205249	1.422966	1.025487
C105	C	0.538582	1.756300	1.358821
C106	C	-0.128086	1.089617	0.307858
C107	C	0.205248	1.422951	0.641191
C108	C	0.538581	1.756284	0.974524
H109	H	-0.014573	1.203199	0.416371
H110	H	0.318761	1.536532	0.749705
H111	H	0.652094	1.869865	1.083038
H112	H	-0.241601	0.976033	0.416396
H113	H	0.091732	1.309366	0.749730
H114	H	0.425066	1.642700	1.083063
H115	H	-0.014569	1.203200	0.583612
H116	H	0.318764	1.536534	0.916945
H117	H	0.652097	1.869867	1.250279
H118	H	-0.241597	0.976051	0.583652
H119	H	0.091737	1.309384	0.916985
H120	H	0.425070	1.642718	1.250318
