data_functionalizedCrystal
_audit_creation_method	'MofGen! by Chris Wilmer'
_symmetry_space_group_name_H-M	'P1'
_symmetry_Int_Tables_number	1
_symmetry_cell_setting	triclinic
loop_
_symmetry_equiv_pos_as_xyz
  x,y,z
_cell_length_a	15.538191
_cell_length_b	10.723024
_cell_length_c	9.798715
_cell_angle_alpha	90.001967
_cell_angle_beta	90.004552
_cell_angle_gamma	65.869982
loop_
_atom_site_label
_atom_site_type_symbol
_atom_site_fract_x
_atom_site_fract_y
_atom_site_fract_z
O1	O	-1.247299	0.404096	-0.113514
O2	O	-0.973969	0.260436	-0.113511
O3	O	-1.116939	0.516769	-0.113508
O4	O	-1.104329	0.147763	-0.113518
O5	O	-1.116929	0.516765	0.113475
O6	O	-0.973959	0.260432	0.113471
O7	O	-1.247289	0.404092	0.113468
Zn8	Zn	-1.110623	0.332261	0.149508
Zn9	Zn	-1.110636	0.332267	-0.149551
O10	O	-1.104319	0.147758	0.113465
C11	C	-0.938965	0.245403	-0.000019
C12	C	-0.834681	0.200632	-0.000018
C13	C	-1.116016	0.562841	-0.000018
C14	C	-1.113271	0.700121	-0.000023
C15	C	-1.282293	0.419125	-0.000027
C16	C	-1.386577	0.463896	-0.000037
C17	C	-0.544016	0.645424	-0.000027
C18	C	-0.446022	0.603323	-0.000029
C19	C	-0.425110	0.366515	-0.000035
C20	C	-0.523104	0.408596	-0.000027
C21	C	-0.582550	0.548052	-0.000024
C22	C	-0.561637	0.311224	-0.000023
C23	C	-0.659623	0.353303	-0.000022
C24	C	-0.719075	0.492753	-0.000023
C25	C	-0.680535	0.590131	-0.000022
C26	C	-0.502190	0.171769	-0.000036
C27	C	-0.540723	0.074397	-0.000032
C28	C	-0.638710	0.116475	-0.000021
C29	C	-0.698162	0.255925	-0.000023
C30	C	-0.677250	0.019097	-0.000022
C31	C	-0.775235	0.061175	-0.000020
C32	C	-0.796148	0.298003	-0.000021
C33	C	-1.105242	0.101687	-0.000028
C34	C	-1.107987	-0.035593	-0.000032
N35	N	-1.110620	0.332261	0.353608
C36	C	-1.193269	0.812246	-0.000026
C37	C	-1.190434	0.954133	-0.000031
N38	N	-1.110645	0.332280	-0.353651
C39	C	-1.055865	0.379202	0.421420
C40	C	-1.055878	0.379212	0.578582
H41	H	-0.844552	0.411562	-0.000011
H42	H	-0.414654	0.682626	-0.000034
C43	C	-0.360609	0.215092	-0.000318
C44	C	-0.378127	0.153891	-0.117107
C45	C	-0.318720	0.014405	-0.117419
H46	H	-0.372311	0.173163	0.078747
H47	H	-0.296720	0.203919	-0.000395
H48	H	-0.442001	0.165054	-0.117017
H49	H	-0.366419	0.195780	-0.196190
H50	H	-0.254830	0.003231	-0.117497
H51	H	-0.330426	-0.027511	-0.038350
H52	H	-0.330591	-0.027136	-0.196665
H53	H	-1.009002	0.419405	0.636899
H54	H	-1.263858	0.803199	-0.000018
H55	H	-0.628835	-0.094448	-0.000038
H56	H	-1.039499	0.868183	-0.000020
H57	H	-0.422404	0.137514	-0.000041
H58	H	-0.798860	0.527010	-0.000040
H59	H	-1.157529	0.292095	0.588042
H60	H	-0.492309	-0.039148	-0.000040
C61	C	-1.173269	0.278959	0.431395
C62	C	-1.236221	0.383366	0.513387
C63	C	-1.293958	0.334319	0.585045
H64	H	-1.135341	0.204283	0.487258
H65	H	-1.207678	0.249560	0.368513
H66	H	-1.201815	0.412744	0.576261
H67	H	-1.274170	0.458049	0.457557
H68	H	-1.328366	0.304920	0.522163
H69	H	-1.256021	0.259643	0.640901
H70	H	-1.336682	0.405154	0.640675
H71	H	-0.728940	0.703690	-0.000012
C72	C	-0.993239	0.432775	0.343950
C73	C	-0.942709	0.476053	0.436969
C74	C	-0.884998	0.525396	0.365659
H75	H	-1.031176	0.507538	0.288191
H76	H	-0.950415	0.362109	0.288251
H77	H	-0.985528	0.546712	0.492645
H78	H	-0.904754	0.401313	0.492731
H79	H	-0.842174	0.454730	0.309959
H80	H	-0.922942	0.600154	0.309902
H81	H	-0.850700	0.554754	0.428761
C82	C	-0.816954	-0.044683	-0.000223
C83	C	-0.786803	-0.126384	-0.116980
C84	C	-0.825206	-0.223926	-0.117209
H85	H	-0.883822	0.000178	-0.000294
H86	H	-0.796572	-0.100310	0.078892
H87	H	-0.807190	-0.070764	-0.196074
H88	H	-0.719940	-0.171276	-0.116934
H89	H	-0.804824	-0.279554	-0.038094
H90	H	-0.892073	-0.179054	-0.117276
H91	H	-0.804747	-0.279380	-0.196420
H92	H	-0.592421	0.758983	-0.000017
H93	H	-1.258919	1.050363	-0.000027
H94	H	-1.042682	0.709168	-0.000031
