data_functionalizedCrystal
_audit_creation_method	'MofGen! by Chris Wilmer'
_symmetry_space_group_name_H-M	'P1'
_symmetry_Int_Tables_number	1
_symmetry_cell_setting	triclinic
loop_
_symmetry_equiv_pos_as_xyz
  x,y,z
_cell_length_a	12.759401
_cell_length_b	25.639240
_cell_length_c	12.759393
_cell_angle_alpha	90.043160
_cell_angle_beta	90.020938
_cell_angle_gamma	90.034283
loop_
_atom_site_label
_atom_site_type_symbol
_atom_site_fract_x
_atom_site_fract_y
_atom_site_fract_z
Zn1	Zn	1.606135	-0.208104	0.593928
Zn2	Zn	1.605970	-0.295549	0.418209
Zn3	Zn	1.430433	-0.208132	0.418263
Zn4	Zn	1.430370	-0.295513	0.593846
O5	O	1.518227	-0.251825	0.506061
O6	O	1.753134	-0.219708	0.570630
O7	O	1.582643	-0.283980	0.271195
O8	O	1.453836	-0.134963	0.441622
O9	O	1.753013	-0.283953	0.441530
O10	O	1.582923	-0.134943	0.570682
O11	O	1.453676	-0.219755	0.271235
O12	O	1.283404	-0.219720	0.441543
O13	O	1.453728	-0.283891	0.740878
O14	O	1.283357	-0.283918	0.570543
O15	O	1.582861	-0.219672	0.740938
O16	O	1.582581	-0.368710	0.441451
O17	O	1.453568	-0.368683	0.570491
C18	C	1.245260	-0.251818	0.506041
C19	C	1.128483	-0.251828	0.506057
C20	C	1.518078	-0.387667	0.505979
C21	C	1.518111	-0.445781	0.505979
C22	C	1.073624	-0.285307	0.573121
C23	C	0.963900	-0.285309	0.573142
C24	C	0.963903	-0.218352	0.439024
C25	C	1.073625	-0.218347	0.439010
C26	C	1.585476	-0.806095	0.573384
C27	C	1.585507	-0.860699	0.573406
O28	O	1.642606	-0.888894	0.630631
N29	N	1.518373	-0.888064	0.506163
C30	C	1.451196	-0.860821	0.438902
O31	O	1.394095	-0.889110	0.381710
C32	C	1.451160	-0.806217	0.438887
C33	C	1.518306	-0.778856	0.506126
C34	C	1.652616	-0.778734	0.640619
C35	C	1.652586	-0.724133	0.640596
C36	C	1.585416	-0.696894	0.573338
C37	C	1.518276	-0.724255	0.506103
C38	C	1.383979	-0.778975	0.371632
C39	C	1.383948	-0.724368	0.371623
C40	C	1.451094	-0.697007	0.438863
C41	C	1.451077	-0.642416	0.438822
N42	N	1.518211	-0.615052	0.506065
C43	C	1.585381	-0.642291	0.573323
C44	C	1.451274	-0.975491	0.438941
C45	C	1.451314	-1.030094	0.438950
C46	C	1.585624	-1.029969	0.573455
C47	C	1.585589	-0.975365	0.573440
C48	C	1.518408	-0.948127	0.506183
C49	C	1.585314	-0.527626	0.573269
C50	C	1.585281	-0.473020	0.573237
C51	C	1.450967	-0.473150	0.438736
C52	C	1.451003	-0.527751	0.438764
C53	C	1.518180	-0.554987	0.506039
O54	O	1.394004	-0.614186	0.381629
O55	O	1.642462	-0.613995	0.630516
C56	C	1.792260	-0.251831	0.506083
C57	C	1.909037	-0.251834	0.506092
C58	C	1.518306	-0.251774	0.780095
C59	C	1.518339	-0.251753	0.896872
C60	C	1.518405	-0.115452	0.506167
C61	C	1.518480	-0.057337	0.506212
C62	C	1.518209	-0.251837	0.233094
C63	C	1.518379	-0.251711	0.116318
C64	C	1.585584	-0.218309	0.951766
C65	C	1.585602	-0.218286	1.061491
C66	C	1.451127	-0.285156	1.061415
C67	C	1.451105	-0.285176	0.951693
H68	H	1.118286	-0.312568	0.627718
C69	C	1.658313	-0.557256	0.646139
C70	C	1.725692	-0.588611	0.586733
C71	C	1.792949	-0.615918	0.653820
H72	H	1.698388	-0.533192	0.686194
H73	H	1.618150	-0.578582	0.691881
H74	H	1.765852	-0.567287	0.541009
H75	H	1.685646	-0.612685	0.546679
H76	H	1.752785	-0.637244	0.699562
H77	H	1.833017	-0.591850	0.693872
H78	H	1.838667	-0.637199	0.613524
H79	H	1.396336	-0.550030	0.384003
H80	H	1.640316	-1.052157	0.628222
H81	H	1.707259	-0.701859	0.695351
H82	H	1.639963	-0.450744	0.627991
H83	H	1.640358	-0.191052	1.106181
C84	C	1.310954	-0.808578	0.298592
C85	C	1.252107	-0.773026	0.239722
C86	C	1.184809	-0.800276	0.172435
H87	H	1.351048	-0.829886	0.252755
H88	H	1.265110	-0.829868	0.338728
H89	H	1.297945	-0.751745	0.199590
H90	H	1.211991	-0.751717	0.285532
H91	H	1.138966	-0.821565	0.212571
H92	H	1.224912	-0.821582	0.126605
H93	H	1.144867	-0.776158	0.132491
C94	C	1.378253	-0.321426	1.121128
C95	C	1.392684	-0.314262	1.228968
C96	C	1.325581	-0.347671	1.284005
H97	H	1.307626	-0.313808	1.103269
H98	H	1.393588	-0.356570	1.103180
H99	H	1.377342	-0.279125	1.246909
H100	H	1.463297	-0.321884	1.246859
H101	H	1.340916	-0.382815	1.266057
H102	H	1.254959	-0.340050	1.266138
H103	H	1.335371	-0.342818	1.357180
C104	C	1.378355	-1.059862	0.366110
C105	C	1.311013	-1.091219	0.425546
C106	C	1.243790	-1.118652	0.358485
H107	H	1.338251	-1.035874	0.326032
H108	H	1.418544	-1.081198	0.320388
H109	H	1.270828	-1.069885	0.471250
H110	H	1.351088	-1.115217	0.465622
H111	H	1.283979	-1.139988	0.312764
H112	H	1.203693	-1.094659	0.318410
H113	H	1.198097	-1.139934	0.398802
C114	C	1.378301	-0.946015	0.365787
C115	C	1.319542	-0.981672	0.306890
C116	C	1.252318	-0.954541	0.239483
H117	H	1.332390	-0.924715	0.405805
H118	H	1.418476	-0.924729	0.319980
H119	H	1.279369	-1.002949	0.352691
H120	H	1.365425	-1.002973	0.266851
H121	H	1.292494	-0.933254	0.193676
H122	H	1.206414	-0.933242	0.279509
H123	H	1.212449	-0.978729	0.199506
C124	C	1.725669	-0.808207	0.713686
C125	C	1.784468	-0.772548	0.772536
C126	C	1.851797	-0.799675	0.839843
H127	H	1.685600	-0.829509	0.759535
H128	H	1.771542	-0.829491	0.673566
H129	H	1.738601	-0.751273	0.812652
H130	H	1.824559	-0.751244	0.726714
H131	H	1.897670	-0.820959	0.799724
H132	H	1.811719	-0.820976	0.885686
H133	H	1.891707	-0.775484	0.879774
H134	H	1.118293	-0.191082	0.384397
C135	C	1.310879	-0.694768	0.298772
C136	C	1.243473	-0.663432	0.358191
C137	C	1.176142	-0.636163	0.291118
H138	H	1.350954	-0.673428	0.252998
H139	H	1.270836	-0.718870	0.258752
H140	H	1.283512	-0.639333	0.398193
H141	H	1.203375	-0.684759	0.403962
H142	H	1.136099	-0.660265	0.251097
H143	H	1.216226	-0.614826	0.245347
H144	H	1.130393	-0.614902	0.331423
C145	C	1.378053	-0.321547	0.892274
C146	C	1.319203	-0.350827	0.963766
C147	C	1.251909	-0.384339	0.909068
H148	H	1.332203	-0.301610	0.849476
H149	H	1.418183	-0.344364	0.849482
H150	H	1.279077	-0.328013	1.006540
H151	H	1.365026	-0.370774	1.006567
H152	H	1.292039	-0.407156	0.866275
H153	H	1.206066	-0.364398	0.866271
H154	H	1.211979	-0.404212	0.957566
H155	H	0.919239	-0.312570	0.627754
H156	H	1.396281	-0.450964	0.383972
C157	C	1.658312	-0.945594	0.646511
C158	C	1.598770	-0.914236	0.713776
C159	C	1.665727	-0.886801	0.781098
H160	H	1.698343	-0.969581	0.686665
H161	H	1.704081	-0.924258	0.606389
H162	H	1.553019	-0.935569	0.753893
H163	H	1.558741	-0.890239	0.673650
H164	H	1.711497	-0.865465	0.740977
H165	H	1.705756	-0.910791	0.821246
H166	H	1.625339	-0.865517	0.826739
C167	C	0.904151	-0.182061	0.366271
C168	C	0.796319	-0.189239	0.380617
C169	C	0.741246	-0.155821	0.313604
H170	H	0.922052	-0.146919	0.381721
H171	H	0.922029	-0.189673	0.295624
H172	H	0.778449	-0.181623	0.451248
H173	H	0.778387	-0.224373	0.365160
H174	H	0.759123	-0.163433	0.242957
H175	H	0.759155	-0.120681	0.329059
H176	H	0.668076	-0.160690	0.323322
C177	C	1.658611	-0.181961	0.892434
C178	C	1.717483	-0.152657	0.963999
C179	C	1.784755	-0.119161	0.909385
H180	H	1.704448	-0.201911	0.849619
H181	H	1.618464	-0.159159	0.849666
H182	H	1.757626	-0.175457	1.006749
H183	H	1.671674	-0.132697	1.006817
H184	H	1.744609	-0.096359	0.866617
H185	H	1.830585	-0.139115	0.866571
H186	H	1.824701	-0.099271	0.957933
