data_functionalizedCrystal
_audit_creation_method	'MofGen! by Chris Wilmer'
_symmetry_space_group_name_H-M	'P1'
_symmetry_Int_Tables_number	1
_symmetry_cell_setting	triclinic
loop_
_symmetry_equiv_pos_as_xyz
  x,y,z
_cell_length_a	14.044191
_cell_length_b	14.044220
_cell_length_c	12.503572
_cell_angle_alpha	93.843168
_cell_angle_beta	86.162165
_cell_angle_gamma	93.190327
loop_
_atom_site_label
_atom_site_type_symbol
_atom_site_fract_x
_atom_site_fract_y
_atom_site_fract_z
O1	O	1.282208	0.225145	-0.089273
O2	O	1.005536	0.216832	-0.089287
O3	O	1.139719	0.082653	-0.089269
O4	O	1.148026	0.359324	-0.089290
O5	O	1.129629	0.092762	0.089371
O6	O	0.995447	0.226941	0.089354
O7	O	1.272118	0.235254	0.089368
Cu8	Cu	1.132861	0.232021	0.105672
Cu9	Cu	1.144794	0.220065	-0.105591
O10	O	1.137936	0.369433	0.089350
C11	C	0.964870	0.218250	0.000032
C12	C	0.858727	0.207402	0.000027
C13	C	0.613268	0.264503	0.000034
C14	C	0.664393	0.187587	0.000038
C15	C	0.772531	0.198615	0.000032
C16	C	0.505121	0.253477	0.000040
C17	C	1.131038	0.052086	0.000051
C18	C	1.120194	-0.054057	0.000052
C19	C	1.100368	-0.248396	0.000036
C20	C	1.177283	-0.299524	0.000036
C21	C	1.166252	-0.407661	0.000027
C22	C	1.111398	-0.140249	0.000045
C23	C	1.312785	0.233836	0.000046
C24	C	1.418929	0.244683	0.000044
C25	C	1.146617	0.400000	0.000027
C26	C	1.157462	0.506143	0.000020
N27	N	1.124476	0.240429	0.254263
N28	N	1.153186	0.211650	-0.254182
C29	C	1.112141	0.252807	0.473377
C30	C	1.165518	0.199275	0.526711
C31	C	1.158655	0.206162	0.648633
C32	C	1.119003	0.245921	0.351444
H33	H	0.626954	0.113450	-0.000032
C34	C	0.663367	0.363261	-0.000039
C35	C	0.762220	0.354698	-0.000073
C36	C	0.808415	0.445650	-0.000159
H37	H	0.642030	0.400578	0.062234
H38	H	0.648997	0.393444	-0.062366
H39	H	0.776583	0.324528	0.062248
H40	H	0.783585	0.317398	-0.062342
H41	H	0.794044	0.475834	-0.062486
H42	H	0.787070	0.482960	0.062115
H43	H	0.875491	0.439852	-0.000191
C44	C	1.276171	-0.249673	-0.000164
C45	C	1.330824	-0.281448	-0.092077
C46	C	1.421915	-0.235534	-0.092300
H47	H	1.306467	-0.264070	0.062064
H48	H	1.270591	-0.182569	-0.000214
H49	H	1.336407	-0.348537	-0.092017
H50	H	1.300558	-0.267051	-0.154320
H51	H	1.416336	-0.168430	-0.092350
H52	H	1.452202	-0.249934	-0.030068
H53	H	1.459006	-0.257080	-0.154666
H54	H	1.026241	-0.285835	0.000029
H55	H	1.216371	0.148273	0.480805
C56	C	1.044437	0.320795	0.534772
C57	C	1.051035	0.314221	0.645246
C58	C	0.988694	0.376849	0.701850
H59	H	0.980792	0.304166	0.516549
H60	H	1.061331	0.384377	0.516464
H61	H	1.034135	0.250654	0.663547
H62	H	1.114664	0.330859	0.663501
H63	H	1.005588	0.440430	0.683542
H64	H	0.925054	0.360213	0.683618
H65	H	0.993169	0.372403	0.776812
