data_functionalizedCrystal
_audit_creation_method	'MofGen! by Chris Wilmer'
_symmetry_space_group_name_H-M	'P1'
_symmetry_Int_Tables_number	1
_symmetry_cell_setting	triclinic
loop_
_symmetry_equiv_pos_as_xyz
  x,y,z
_cell_length_a	12.827893
_cell_length_b	25.639234
_cell_length_c	12.827892
_cell_angle_alpha	90.015811
_cell_angle_beta	89.982699
_cell_angle_gamma	89.981399
loop_
_atom_site_label
_atom_site_type_symbol
_atom_site_fract_x
_atom_site_fract_y
_atom_site_fract_z
Zn1	Zn	1.597649	-0.295625	0.416097
Zn2	Zn	2.097649	0.204375	0.916097
Zn3	Zn	1.597539	-0.208204	0.590841
Zn4	Zn	2.097539	0.291796	1.090841
Zn5	Zn	1.422892	-0.208206	0.416115
Zn6	Zn	1.922892	0.291794	0.916115
Zn7	Zn	1.422869	-0.295610	0.590797
Zn8	Zn	1.922869	0.204390	1.090797
O9	O	1.510237	-0.251911	0.503463
O10	O	2.010237	0.248089	1.003463
O11	O	1.743870	-0.284034	0.439289
O12	O	2.243870	0.215966	0.939289
O13	O	1.574335	-0.135039	0.567689
O14	O	2.074335	0.364961	1.067689
O15	O	1.446129	-0.219810	0.269876
O16	O	1.946129	0.280190	0.769876
O17	O	1.743789	-0.219806	0.567672
O18	O	2.243789	0.280194	1.067672
O19	O	1.574522	-0.284036	0.269864
O20	O	2.074522	0.215964	0.769864
O21	O	1.446023	-0.135040	0.439318
O22	O	1.946023	0.364960	0.939318
O23	O	1.276653	-0.219795	0.439275
O24	O	1.776653	0.280205	0.939275
O25	O	1.446091	-0.368777	0.567597
O26	O	1.946091	0.131223	1.067597
O27	O	1.276636	-0.284010	0.567614
O28	O	1.776636	0.215990	1.067614
O29	O	1.574500	-0.368789	0.439246
O30	O	2.074500	0.131211	0.939246
O31	O	1.574313	-0.219791	0.737071
O32	O	2.074313	0.280209	1.237071
O33	O	1.445984	-0.284008	0.737039
O34	O	1.945984	0.215992	1.237039
C35	C	1.238727	-0.251901	0.503442
C36	C	1.738727	0.248099	1.003442
C37	C	1.122574	-0.251909	0.503459
C38	C	1.622574	0.248091	1.003459
C39	C	1.070809	-0.283636	0.567064
C40	C	1.570809	0.216364	1.067064
C41	C	0.950758	-0.283645	0.567083
C42	C	1.450758	0.216355	1.067083
C43	C	1.510305	-0.388284	0.503415
C44	C	2.010305	0.111716	1.003415
C45	C	1.510334	-0.446398	0.503395
C46	C	2.010334	0.053602	1.003395
C47	C	1.443551	-0.806768	0.436427
C48	C	1.943551	-0.306768	0.936427
C49	C	1.443557	-0.861372	0.436408
C50	C	1.943557	-0.361372	0.936408
O51	O	1.386723	-0.889614	0.379586
O52	O	1.886723	-0.389614	0.879586
N53	N	1.510369	-0.888681	0.503231
N54	N	2.010369	-0.388681	1.003231
C55	C	1.577172	-0.861383	0.570084
C56	C	2.077172	-0.361383	1.070084
O57	O	1.634000	-0.889625	0.626920
O58	O	2.134000	-0.389625	1.126920
C59	C	1.577160	-0.806779	0.570107
C60	C	2.077160	-0.306779	1.070107
C61	C	1.510351	-0.779473	0.503273
C62	C	2.010351	-0.279473	1.003273
C63	C	1.376747	-0.779462	0.369600
C64	C	1.876747	-0.279462	0.869600
C65	C	1.376743	-0.724861	0.369617
C66	C	1.876743	-0.224861	0.869617
C67	C	1.443543	-0.697567	0.436463
C68	C	1.943543	-0.197567	0.936463
C69	C	1.510347	-0.724873	0.503291
C70	C	2.010347	-0.224873	1.003291
C71	C	1.643957	-0.779482	0.636964
C72	C	2.143957	-0.279482	1.136964
C73	C	1.643939	-0.724875	0.636983
C74	C	2.143939	-0.224875	1.136983
C75	C	1.577131	-0.697569	0.570149
C76	C	2.077131	-0.197569	1.070149
C77	C	1.577144	-0.642978	0.570154
C78	C	2.077144	-0.142978	1.070154
N79	N	1.510332	-0.615669	0.503332
N80	N	2.010332	-0.115669	1.003332
C81	C	1.443531	-0.642963	0.436486
C82	C	1.943531	-0.142963	0.936486
C83	C	1.577190	-0.976053	0.570031
C84	C	2.077190	-0.476053	1.070031
C85	C	1.577208	-1.030656	0.570003
C86	C	2.077208	-0.530656	1.070003
C87	C	1.443591	-1.030641	0.436329
C88	C	1.943591	-0.530641	0.936329
C89	C	1.443579	-0.976038	0.436352
C90	C	1.943579	-0.476038	0.936352
C91	C	1.510378	-0.948744	0.503208
C92	C	2.010378	-0.448744	1.003208
C93	C	1.443529	-0.528298	0.436528
C94	C	1.943529	-0.028298	0.936528
C95	C	1.443534	-0.473693	0.436549
C96	C	1.943534	0.026307	0.936549
C97	C	1.577146	-0.473712	0.570226
C98	C	2.077146	0.026288	1.070226
C99	C	1.577146	-0.528312	0.570202
C100	C	2.077146	-0.028312	1.070202
C101	C	1.510328	-0.555604	0.503350
C102	C	2.010328	-0.055604	1.003350
O103	O	1.633946	-0.614701	0.626951
O104	O	2.133946	-0.114701	1.126951
O105	O	1.386703	-0.614715	0.379669
O106	O	1.886703	-0.114715	0.879669
C107	C	1.782807	-0.251921	0.503484
C108	C	2.282807	0.248079	1.003484
C109	C	1.898960	-0.251926	0.503492
C110	C	2.398960	0.248074	1.003492
C111	C	1.510163	-0.251909	0.774972
C112	C	2.010163	0.248091	1.274972
C113	C	1.510226	-0.251925	0.891126
C114	C	2.010226	0.248075	1.391126
C115	C	1.510230	-0.116069	0.503435
C116	C	2.010230	0.383931	1.003435
C117	C	1.510403	-0.057955	0.503161
C118	C	2.010403	0.442045	1.003161
C119	C	1.573801	-0.220185	0.942892
C120	C	2.073801	0.279815	1.442892
C121	C	1.573869	-0.220202	1.062942
C122	C	2.073869	0.279798	1.562942
C123	C	1.510332	-0.251931	1.230892
C124	C	2.010332	0.248069	1.730892
C125	C	1.510351	-0.251956	1.114739
C126	C	2.010351	0.248044	1.614739
H127	H	0.906241	-0.310806	0.621540
H128	H	1.406241	0.189194	1.121540
Br129	Br	1.145065	-0.328899	0.657811
Br130	Br	1.645065	0.171101	1.157811
H131	H	1.698359	-0.801705	0.691389
H132	H	2.198359	-0.301705	1.191389
H133	H	1.455852	-0.279113	0.935683
H134	H	1.955852	0.220887	1.435683
H135	H	1.322336	-0.702634	0.315198
H136	H	1.822336	-0.202634	0.815198
Br137	Br	1.286061	-0.816494	0.278884
Br138	Br	1.786061	-0.316494	0.778884
H139	H	1.389121	-0.550513	0.382090
H140	H	1.889121	-0.050513	0.882090
H141	H	0.943471	-0.224760	0.449039
H142	H	1.443471	0.275240	0.949039
H143	H	1.078016	-0.224756	0.449014
H144	H	1.578016	0.275244	0.949014
Br145	Br	1.664452	-0.174876	0.868637
Br146	Br	2.164452	0.325124	1.368637
H147	H	1.389178	-0.953809	0.381929
H148	H	1.889178	-0.453809	0.881929
Br149	Br	1.667862	-0.939017	0.660766
Br150	Br	2.167862	-0.439017	1.160766
Br151	Br	1.667807	-0.436659	0.660934
Br152	Br	2.167807	0.063341	1.160934
H153	H	1.389198	-1.052875	0.381900
H154	H	1.889198	-0.552875	0.881900
Br155	Br	1.352863	-0.436638	0.345835
Br156	Br	1.852863	0.063362	0.845835
H157	H	1.631558	-0.550546	0.624612
H158	H	2.131558	-0.050546	1.124612
Br159	Br	1.667897	-1.067707	0.660693
Br160	Br	2.167897	-0.567707	1.160693
Br161	Br	1.419615	-0.297247	1.040554
Br162	Br	1.919615	0.202753	1.540554
H163	H	1.698343	-0.702655	0.691420
H164	H	2.198343	-0.202655	1.191420
H165	H	1.628294	-0.193026	1.107460
H166	H	2.128294	0.306974	1.607460
