data_functionalizedCrystal
_audit_creation_method	'MofGen! by Chris Wilmer'
_symmetry_space_group_name_H-M	'P1'
_symmetry_Int_Tables_number	1
_symmetry_cell_setting	triclinic
loop_
_symmetry_equiv_pos_as_xyz
  x,y,z
_cell_length_a	17.699083
_cell_length_b	15.995350
_cell_length_c	16.776229
_cell_angle_alpha	89.995580
_cell_angle_beta	89.998886
_cell_angle_gamma	83.387695
loop_
_atom_site_label
_atom_site_type_symbol
_atom_site_fract_x
_atom_site_fract_y
_atom_site_fract_z
O1	O	1.004255	0.105885	-0.066173
O2	O	0.783899	0.119661	-0.066198
O3	O	0.900100	-0.009127	-0.066184
O4	O	0.888053	0.234673	-0.066187
O5	O	0.900085	-0.009135	0.066393
O6	O	0.783884	0.119653	0.066378
O7	O	1.004239	0.105877	0.066404
Zn8	Zn	0.894059	0.112764	0.087441
Zn9	Zn	0.894079	0.112774	-0.087235
O10	O	0.888038	0.234665	0.066390
C11	C	0.755694	0.119163	0.000087
C12	C	0.671673	0.117683	0.000077
C13	C	0.899595	-0.040324	0.000103
C14	C	0.898101	-0.133272	0.000098
C15	C	0.623178	0.193278	0.000076
C16	C	0.544232	0.191882	0.000087
C17	C	0.513783	0.114889	0.000092
C18	C	0.562285	0.039287	0.000095
C19	C	0.641229	0.040685	0.000090
C20	C	0.243912	0.033651	0.000115
C21	C	0.164962	0.032259	0.000117
C22	C	0.146916	0.184848	0.000111
C23	C	0.225860	0.186245	0.000106
C24	C	0.274354	0.110644	0.000114
C25	C	0.359956	0.112159	0.000104
C26	C	0.428183	0.113373	0.000096
C27	C	0.892739	-0.471008	0.000100
C28	C	0.809983	-0.423406	-0.000207
C29	C	0.811476	-0.326719	0.000092
C30	C	0.895399	-0.303453	0.000099
C31	C	0.936209	-0.344618	0.075810
C32	C	0.934130	-0.441250	0.075873
C33	C	0.935857	-0.441602	-0.074891
C34	C	0.935837	-0.344657	-0.075892
C35	C	0.896907	-0.208759	0.000101
C36	C	0.891234	-0.565703	0.000104
C37	C	1.032445	0.106375	0.000117
C38	C	1.116465	0.107856	0.000122
C39	C	0.888544	0.265863	0.000101
C40	C	0.890037	0.358810	0.000101
N41	N	0.894051	0.112756	0.206652
N42	N	0.894094	0.112775	-0.206446
C43	C	0.945520	0.055752	0.248375
C44	C	0.945524	0.055752	0.331827
C45	C	0.894062	0.112760	0.373555
C46	C	0.842587	0.169766	0.331825
C47	C	0.842580	0.169762	0.248375
C48	C	0.842614	0.169783	0.668373
C49	C	0.842627	0.169784	0.751829
C50	C	0.945559	0.055772	0.751825
C51	C	0.945552	0.055768	0.668375
C52	C	0.894074	0.112771	0.626653
C53	C	0.894069	0.112770	0.536164
C54	C	0.894070	0.112765	0.464041
H55	H	0.647962	0.255975	0.000071
F56	F	0.787796	0.230432	0.203971
F57	F	0.692841	-0.039775	0.000094
H58	H	0.504750	0.253440	0.000085
F59	F	0.787812	0.230435	0.376235
H60	H	0.987473	0.009354	0.785804
F61	F	0.900495	-0.468363	-0.149897
H62	H	0.800717	0.216208	0.785802
F63	F	0.787831	0.230451	0.623975
H64	H	0.537487	-0.023402	0.000111
F65	F	1.015830	-0.324737	-0.081866
F66	F	0.895213	-0.465099	0.149838
F67	F	1.013543	-0.483565	0.080377
F68	F	1.015608	-0.483279	-0.075552
H69	H	0.250646	0.248941	0.000098
F70	F	1.016797	-0.326321	0.079499
F71	F	0.095298	0.265310	0.000106
H72	H	0.779397	-0.298228	-0.054181
H73	H	0.907852	-0.316183	0.132147
F74	F	0.132559	-0.049692	0.000123
H75	H	0.776912	-0.441867	-0.054501
F76	F	0.766821	-0.449214	0.070161
F77	F	0.295514	-0.046811	0.000122
H78	H	0.779168	-0.298792	0.054450
H79	H	0.987460	0.009350	0.634403
F80	F	1.000303	-0.004919	0.376233
H81	H	0.906000	-0.317344	-0.131901
H82	H	0.987430	0.009334	0.214406
