data_functionalizedCrystal
_audit_creation_method	'MofGen! by Chris Wilmer'
_symmetry_space_group_name_H-M	'P1'
_symmetry_Int_Tables_number	1
_symmetry_cell_setting	triclinic
loop_
_symmetry_equiv_pos_as_xyz
  x,y,z
_cell_length_a	18.101398
_cell_length_b	18.101397
_cell_length_c	21.395356
_cell_angle_alpha	89.970896
_cell_angle_beta	89.981071
_cell_angle_gamma	90.018618
loop_
_atom_site_label
_atom_site_type_symbol
_atom_site_fract_x
_atom_site_fract_y
_atom_site_fract_z
Zn1	Zn	1.132209	-0.294885	-0.354177
Zn2	Zn	1.382209	-0.044885	-0.104177
Zn3	Zn	1.632209	0.205115	0.145823
Zn4	Zn	1.882209	0.455115	0.395823
Zn5	Zn	1.132118	-0.418728	-0.249397
Zn6	Zn	1.382118	-0.168728	0.000603
Zn7	Zn	1.632118	0.081272	0.250603
Zn8	Zn	1.882118	0.331272	0.500603
Zn9	Zn	1.008358	-0.294901	-0.249423
Zn10	Zn	1.258358	-0.044901	0.000577
Zn11	Zn	1.508358	0.205099	0.250577
Zn12	Zn	1.758358	0.455099	0.500577
Zn13	Zn	1.008342	-0.418685	-0.354146
Zn14	Zn	1.258342	-0.168685	-0.104146
Zn15	Zn	1.508342	0.081315	0.145854
Zn16	Zn	1.758342	0.331315	0.395854
O17	O	1.070257	-0.356800	-0.301786
O18	O	1.320257	-0.106800	-0.051786
O19	O	1.570257	0.143200	0.198214
O20	O	1.820257	0.393200	0.448214
O21	O	1.235830	-0.311324	-0.340281
O22	O	1.485830	-0.061324	-0.090281
O23	O	1.735830	0.188676	0.159719
O24	O	1.985830	0.438676	0.409719
O25	O	1.115670	-0.402327	-0.161723
O26	O	1.365670	-0.152327	0.088277
O27	O	1.615670	0.097673	0.338277
O28	O	1.865670	0.347673	0.588277
O29	O	1.024832	-0.191266	-0.263342
O30	O	1.274832	0.058734	-0.013342
O31	O	1.524832	0.308734	0.236658
O32	O	1.774832	0.558734	0.486658
O33	O	1.235763	-0.402311	-0.263299
O34	O	1.485763	-0.152311	-0.013299
O35	O	1.735763	0.097689	0.236701
O36	O	1.985763	0.347689	0.486701
O37	O	1.115825	-0.191254	-0.340305
O38	O	1.365825	0.058746	-0.090305
O39	O	1.615825	0.308746	0.159695
O40	O	1.865825	0.558746	0.409695
O41	O	1.024744	-0.311351	-0.161741
O42	O	1.274744	-0.061351	0.088259
O43	O	1.524744	0.188649	0.338259
O44	O	1.774744	0.438649	0.588259
O45	O	0.904723	-0.311310	-0.263312
O46	O	1.154723	-0.061310	-0.013312
O47	O	1.404723	0.188690	0.236688
O48	O	1.654723	0.438690	0.486688
O49	O	1.024804	-0.402238	-0.441828
O50	O	1.274804	-0.152238	-0.191828
O51	O	1.524804	0.097762	0.058172
O52	O	1.774804	0.347762	0.308172
O53	O	0.904711	-0.402254	-0.340252
O54	O	1.154711	-0.152254	-0.090252
O55	O	1.404711	0.097746	0.159748
O56	O	1.654711	0.347746	0.409748
O57	O	1.115809	-0.311283	-0.441851
O58	O	1.365809	-0.061283	-0.191851
O59	O	1.615809	0.188717	0.058149
O60	O	1.865809	0.438717	0.308149
O61	O	1.115654	-0.522355	-0.263269
O62	O	1.365654	-0.272355	-0.013269
O63	O	1.615654	-0.022355	0.236731
O64	O	1.865654	0.227645	0.486731
O65	O	1.024716	-0.522324	-0.340227
O66	O	1.274716	-0.272324	-0.090227
O67	O	1.524716	-0.022324	0.159773
O68	O	1.774716	0.227676	0.409773
C69	C	0.877846	-0.356779	-0.301781
C70	C	1.127846	-0.106779	-0.051781
C71	C	1.377846	0.143221	0.198219
C72	C	1.627846	0.393221	0.448219
C73	C	0.795532	-0.356788	-0.301794
C74	C	1.045532	-0.106788	-0.051794
C75	C	1.295532	0.143212	0.198206
C76	C	1.545532	0.393212	0.448206
C77	C	0.644824	-0.356802	-0.301793
C78	C	0.894824	-0.106802	-0.051793
C79	C	1.144824	0.143198	0.198207
C80	C	1.394824	0.393198	0.448207
C81	C	0.613487	-0.414110	-0.350127
C82	C	0.863487	-0.164110	-0.100127
C83	C	1.113487	0.085890	0.149873
C84	C	1.363487	0.335890	0.399873
C85	C	0.527869	-0.414342	-0.349984
C86	C	0.777869	-0.164342	-0.099984
C87	C	1.027869	0.085658	0.150016
C88	C	1.277869	0.335658	0.400016
C89	C	0.496441	-0.356816	-0.301793
C90	C	0.746441	-0.106816	-0.051793
C91	C	0.996441	0.143184	0.198207
C92	C	1.246441	0.393184	0.448207
C93	C	0.527492	-0.377640	-0.235681
C94	C	0.777492	-0.127640	0.014319
C95	C	1.027492	0.122360	0.264319
C96	C	1.277492	0.372360	0.514319
C97	C	0.613137	-0.378048	-0.235961
C98	C	0.863137	-0.128048	0.014039
C99	C	1.113137	0.121952	0.264039
C100	C	1.363137	0.371952	0.514039
C101	C	0.613290	-0.278529	-0.318995
C102	C	0.863290	-0.028529	-0.068995
C103	C	1.113290	0.221471	0.181005
C104	C	1.363290	0.471471	0.431005
C105	C	0.527640	-0.278958	-0.320451
C106	C	0.777640	-0.028958	-0.070451
C107	C	1.027640	0.221042	0.179549
C108	C	1.277640	0.471042	0.429549
C109	C	0.412582	-0.356822	-0.301789
C110	C	0.662582	-0.106822	-0.051789
C111	C	0.912582	0.143178	0.198211
C112	C	1.162582	0.393178	0.448211
C113	C	0.728683	-0.356798	-0.301793
C114	C	0.978683	-0.106798	-0.051793
C115	C	1.228683	0.143202	0.198207
C116	C	1.478683	0.393202	0.448207
C117	C	1.070193	-0.549210	-0.301755
C118	C	1.320193	-0.299210	-0.051755
C119	C	1.570193	-0.049210	0.198245
C120	C	1.820193	0.200790	0.448245
C121	C	1.070234	-0.631524	-0.301763
C122	C	1.320234	-0.381524	-0.051763
C123	C	1.570234	-0.131524	0.198237
C124	C	1.820234	0.118476	0.448237
C125	C	1.070329	-0.930615	-0.301821
C126	C	1.320329	-0.680615	-0.051821
C127	C	1.570329	-0.430615	0.198179
C128	C	1.820329	-0.180615	0.448179
C129	C	1.127385	-0.899279	-0.253271
C130	C	1.377385	-0.649279	-0.003271
C131	C	1.627385	-0.399279	0.246729
C132	C	1.877385	-0.149279	0.496729
C133	C	1.127582	-0.813661	-0.253396
C134	C	1.377582	-0.563661	-0.003396
C135	C	1.627582	-0.313661	0.246604
C136	C	1.877582	-0.063661	0.496604
C137	C	1.070282	-0.782233	-0.301792
C138	C	1.320282	-0.532233	-0.051792
C139	C	1.570282	-0.282233	0.198208
C140	C	1.820282	-0.032233	0.448208
C141	C	1.091444	-0.813243	-0.367833
C142	C	1.341444	-0.563243	-0.117833
C143	C	1.591444	-0.313243	0.132167
C144	C	1.841444	-0.063243	0.382167
C145	C	1.091886	-0.898888	-0.367568
C146	C	1.341886	-0.648888	-0.117568
C147	C	1.591886	-0.398888	0.132432
C148	C	1.841886	-0.148888	0.382432
C149	C	0.991958	-0.899121	-0.284901
C150	C	1.241958	-0.649121	-0.034901
C151	C	1.491958	-0.399121	0.215099
C152	C	1.741958	-0.149121	0.465099
C153	C	0.992345	-0.813472	-0.283426
C154	C	1.242345	-0.563472	-0.033426
C155	C	1.492345	-0.313472	0.216574
C156	C	1.742345	-0.063472	0.466574
C157	C	1.070254	-0.698373	-0.301779
C158	C	1.320254	-0.448373	-0.051779
C159	C	1.570254	-0.198373	0.198221
C160	C	1.820254	0.051627	0.448221
C161	C	1.070358	-1.014475	-0.301837
C162	C	1.320358	-0.764475	-0.051837
C163	C	1.570358	-0.514475	0.198163
C164	C	1.820358	-0.264475	0.448163
C165	C	1.263419	-0.356821	-0.301790
C166	C	1.513419	-0.106821	-0.051790
C167	C	1.763419	0.143179	0.198210
C168	C	2.013419	0.393179	0.448210
C169	C	1.345733	-0.356830	-0.301792
C170	C	1.595733	-0.106830	-0.051792
C171	C	1.845733	0.143170	0.198208
C172	C	2.095733	0.393170	0.448208
C173	C	1.070315	-0.356754	-0.465209
C174	C	1.320315	-0.106754	-0.215209
C175	C	1.570315	0.143246	0.034791
C176	C	1.820315	0.393246	0.284791
C177	C	1.070340	-0.356734	-0.534850
C178	C	1.320340	-0.106734	-0.284850
C179	C	1.570340	0.143266	-0.034850
C180	C	1.820340	0.393266	0.215150
C181	C	1.070341	-0.163638	-0.301830
C182	C	1.320341	0.086362	-0.051830
C183	C	1.570341	0.336362	0.198170
C184	C	1.820341	0.586362	0.448170
C185	C	1.070376	-0.081324	-0.301849
C186	C	1.320376	0.168676	-0.051849
C187	C	1.570376	0.418676	0.198151
C188	C	1.820376	0.668676	0.448151
C189	C	1.023007	-0.309358	-0.567563
C190	C	1.273007	-0.059358	-0.317563
C191	C	1.523007	0.190642	-0.067563
C192	C	1.773007	0.440642	0.182437
C193	C	1.023005	-0.309344	-0.632999
C194	C	1.273005	-0.059344	-0.382999
C195	C	1.523005	0.190656	-0.132999
C196	C	1.773005	0.440656	0.117001
C197	C	1.070348	-0.356699	-0.665719
C198	C	1.320348	-0.106699	-0.415719
C199	C	1.570348	0.143301	-0.165719
C200	C	1.820348	0.393301	0.084281
C201	C	1.117684	-0.404084	-0.632998
C202	C	1.367684	-0.154084	-0.382998
C203	C	1.617684	0.095916	-0.132998
C204	C	1.867684	0.345916	0.117002
C205	C	1.117680	-0.404102	-0.567564
C206	C	1.367680	-0.154102	-0.317564
C207	C	1.617680	0.095898	-0.067564
C208	C	1.867680	0.345898	0.182436
C209	C	1.137074	-0.362524	-0.769400
C210	C	1.387074	-0.112524	-0.519400
C211	C	1.637074	0.137476	-0.269400
C212	C	1.887074	0.387476	-0.019400
C213	C	1.137079	-0.362501	-0.834833
C214	C	1.387079	-0.112501	-0.584833
C215	C	1.637079	0.137499	-0.334833
C216	C	1.887079	0.387499	-0.084833
C217	C	1.070360	-0.356649	-0.867540
C218	C	1.320360	-0.106649	-0.617540
C219	C	1.570360	0.143351	-0.367540
C220	C	1.820360	0.393351	-0.117540
C221	C	1.003634	-0.350805	-0.834805
C222	C	1.253634	-0.100805	-0.584805
C223	C	1.503634	0.149195	-0.334805
C224	C	1.753634	0.399195	-0.084805
C225	C	1.003630	-0.350822	-0.769371
C226	C	1.253630	-0.100822	-0.519371
C227	C	1.503630	0.149178	-0.269371
C228	C	1.753630	0.399178	-0.019371
C229	C	1.070357	-0.356686	-0.736671
C230	C	1.320357	-0.106686	-0.486671
C231	C	1.570357	0.143314	-0.236671
C232	C	1.820357	0.393314	0.013329
C233	C	1.023021	-0.309255	-0.971205
C234	C	1.273021	-0.059255	-0.721205
C235	C	1.523021	0.190745	-0.471205
C236	C	1.773021	0.440745	-0.221205
C237	C	1.023017	-0.309247	-1.036642
C238	C	1.273017	-0.059247	-0.786642
C239	C	1.523017	0.190753	-0.536642
C240	C	1.773017	0.440753	-0.286642
C241	C	1.117703	-0.403983	-1.036640
C242	C	1.367703	-0.153983	-0.786640
C243	C	1.617703	0.096017	-0.536640
C244	C	1.867703	0.346017	-0.286640
C245	C	1.117700	-0.403995	-0.971204
C246	C	1.367700	-0.153995	-0.721204
C247	C	1.617700	0.096005	-0.471204
C248	C	1.867700	0.346005	-0.221204
C249	C	1.070360	-0.356628	-0.938491
C250	C	1.320360	-0.106628	-0.688491
C251	C	1.570360	0.143372	-0.438491
C252	C	1.820360	0.393372	-0.188491
C253	C	1.070241	-0.356792	-0.138998
C254	C	1.320241	-0.106792	0.111002
C255	C	1.570241	0.143208	0.361002
C256	C	1.820241	0.393208	0.611002
C257	C	1.070360	-0.356603	-0.069357
C258	C	1.320360	-0.106603	0.180643
C259	C	1.570360	0.143397	0.430643
C260	C	1.820360	0.393397	0.680643
H261	H	0.633865	-0.338091	-0.198713
H262	H	0.883865	-0.088091	0.051287
H263	H	1.133865	0.161909	0.301287
H264	H	1.383865	0.411909	0.551287
F265	F	0.932621	-0.344573	-0.869608
F266	F	1.182621	-0.094573	-0.619608
F267	F	1.432621	0.155427	-0.369608
F268	F	1.682621	0.405427	-0.119608
H269	H	0.633088	-0.435255	-0.221423
H270	H	0.883088	-0.185255	0.028577
H271	H	1.133088	0.064745	0.278577
H272	H	1.383088	0.314745	0.528577
H273	H	0.972707	-0.920780	-0.237579
H274	H	1.222707	-0.670780	0.012421
H275	H	1.472707	-0.420780	0.262421
H276	H	1.722707	-0.170780	0.512421
F277	F	0.933788	-0.785520	-0.326261
F278	F	1.183788	-0.535520	-0.076261
F279	F	1.433788	-0.285520	0.173739
F280	F	1.683788	-0.035520	0.423739
H281	H	1.156252	-0.442539	-1.063280
H282	H	1.406252	-0.192539	-0.813280
H283	H	1.656252	0.057461	-0.563280
H284	H	1.906252	0.307461	-0.313280
F285	F	0.972638	-0.258906	-0.667821
F286	F	1.222638	-0.008906	-0.417821
F287	F	1.472638	0.241094	-0.167821
F288	F	1.722638	0.491094	0.082179
F289	F	0.499673	-0.220199	-0.277834
F290	F	0.749673	0.029801	-0.027834
F291	F	0.999673	0.279801	0.222166
F292	F	1.249673	0.529801	0.472166
H293	H	0.976388	-0.793211	-0.234825
H294	H	1.226388	-0.543211	0.015175
H295	H	1.476388	-0.293211	0.265175
H296	H	1.726388	-0.043211	0.515175
F297	F	1.166762	-0.924928	-0.386301
F298	F	1.416762	-0.674928	-0.136301
F299	F	1.666762	-0.424928	0.113699
F300	F	1.916762	-0.174928	0.363699
H301	H	1.185635	-0.793119	-0.264591
H302	H	1.435635	-0.543119	-0.014591
H303	H	1.685635	-0.293119	0.235409
H304	H	1.935635	-0.043119	0.485409
F305	F	0.972635	-0.258847	-0.936387
F306	F	1.222635	-0.008847	-0.686387
F307	F	1.472635	0.241153	-0.436387
F308	F	1.722635	0.491153	-0.186387
H309	H	0.506876	-0.401352	-0.398997
H310	H	0.756876	-0.151352	-0.148997
H311	H	1.006876	0.098648	0.101003
H312	H	1.256876	0.348648	0.351003
H313	H	0.507134	-0.337179	-0.198680
H314	H	0.757134	-0.087179	0.051320
H315	H	1.007134	0.162821	0.301320
H316	H	1.257134	0.412821	0.551320
F317	F	0.641556	-0.253660	-0.380946
F318	F	0.891556	-0.003660	-0.130946
F319	F	1.141556	0.246340	0.119054
F320	F	1.391556	0.496340	0.369054
F321	F	0.501119	-0.258422	-0.384047
F322	F	0.751119	-0.008422	-0.134047
F323	F	1.001119	0.241578	0.115953
F324	F	1.251119	0.491578	0.365953
F325	F	0.932617	-0.344606	-0.734534
F326	F	1.182617	-0.094606	-0.484534
F327	F	1.432617	0.155394	-0.234534
F328	F	1.682617	0.405394	0.015466
H329	H	0.634110	-0.401271	-0.399292
H330	H	0.884110	-0.151271	-0.149292
H331	H	1.134110	0.098729	0.100708
H332	H	1.384110	0.348729	0.350708
F333	F	0.936392	-0.925611	-0.331118
F334	F	1.186392	-0.675611	-0.081118
F335	F	1.436392	-0.425611	0.168882
F336	F	1.686392	-0.175611	0.418882
F337	F	0.499426	-0.451596	-0.216352
F338	F	0.749426	-0.201596	0.033648
F339	F	0.999426	0.048404	0.283648
F340	F	1.249426	0.298404	0.533648
F341	F	0.972621	-0.258947	-0.532751
F342	F	1.222621	-0.008947	-0.282751
F343	F	1.472621	0.241053	-0.032751
F344	F	1.722621	0.491053	0.217249
H345	H	0.633556	-0.235835	-0.283795
H346	H	0.883556	0.014165	-0.033795
H347	H	1.133556	0.264165	0.216205
H348	H	1.383556	0.514165	0.466205
H349	H	1.114342	-0.792697	-0.204428
H350	H	1.364342	-0.542697	0.045572
H351	H	1.614342	-0.292697	0.295572
H352	H	1.864342	-0.042697	0.545572
H353	H	0.984468	-0.270670	-1.063276
H354	H	1.234468	-0.020670	-0.813276
H355	H	1.484468	0.229330	-0.563276
H356	H	1.734468	0.479330	-0.313276
H357	H	1.052149	-0.919614	-0.404988
H358	H	1.302149	-0.669614	-0.154988
H359	H	1.552149	-0.419614	0.095012
H360	H	1.802149	-0.169614	0.345012
F361	F	1.110293	-0.926262	-0.189072
F362	F	1.360293	-0.676262	0.060928
F363	F	1.610293	-0.426262	0.310928
F364	F	1.860293	-0.176262	0.560928
H365	H	1.156245	-0.442573	-0.944569
H366	H	1.406245	-0.192573	-0.694569
H367	H	1.656245	0.057427	-0.444569
H368	H	1.906245	0.307427	-0.194569
F369	F	1.208090	-0.368757	-0.734598
F370	F	1.458090	-0.118757	-0.484598
F371	F	1.708090	0.131243	-0.234598
F372	F	1.958090	0.381243	0.015402
H373	H	1.185120	-0.920749	-0.264336
H374	H	1.435120	-0.670749	-0.014336
H375	H	1.685120	-0.420749	0.235664
H376	H	1.935120	-0.170749	0.485664
F377	F	1.168067	-0.454485	-0.667822
F378	F	1.418067	-0.204485	-0.417822
F379	F	1.668067	0.045515	-0.167822
F380	F	1.918067	0.295515	0.082178
H381	H	1.191412	-0.367256	-0.861481
H382	H	1.441412	-0.117256	-0.611481
H383	H	1.691412	0.132744	-0.361481
H384	H	1.941412	0.382744	-0.111481
F385	F	1.038784	-0.786640	-0.416386
F386	F	1.288784	-0.536640	-0.166386
F387	F	1.538784	-0.286640	0.083614
F388	F	1.788784	-0.036640	0.333614
F389	F	1.168060	-0.454528	-0.532747
F390	F	1.418060	-0.204528	-0.282747
F391	F	1.668060	0.045472	-0.032747
F392	F	1.918060	0.295472	0.217253
H393	H	0.634985	-0.471781	-0.338852
H394	H	0.884985	-0.221781	-0.088852
H395	H	1.134985	0.028219	0.161148
H396	H	1.384985	0.278219	0.411148
F397	F	1.165482	-0.785136	-0.386885
F398	F	1.415482	-0.535136	-0.136885
F399	F	1.665482	-0.285136	0.113115
F400	F	1.915482	-0.035136	0.363115
H401	H	0.507357	-0.472346	-0.338571
H402	H	0.757357	-0.222346	-0.088571
H403	H	1.007357	0.027654	0.161429
H404	H	1.257357	0.277654	0.411429
