data_functionalizedCrystal
_audit_creation_method	'MofGen! by Chris Wilmer'
_symmetry_space_group_name_H-M	'P1'
_symmetry_Int_Tables_number	1
_symmetry_cell_setting	triclinic
loop_
_symmetry_equiv_pos_as_xyz
  x,y,z
_cell_length_a	16.120490
_cell_length_b	29.839131
_cell_length_c	16.120297
_cell_angle_alpha	92.867727
_cell_angle_beta	90.129683
_cell_angle_gamma	87.133579
loop_
_atom_site_label
_atom_site_type_symbol
_atom_site_fract_x
_atom_site_fract_y
_atom_site_fract_z
Zn1	Zn	1.247317	-0.227636	-0.534499
Zn2	Zn	1.747317	0.272364	-0.034499
Zn3	Zn	1.254226	-0.299153	-0.395429
Zn4	Zn	1.754226	0.200847	0.104571
Zn5	Zn	1.115311	-0.220041	-0.388421
Zn6	Zn	1.615311	0.279959	0.111579
Zn7	Zn	1.108182	-0.298735	-0.527402
Zn8	Zn	1.608182	0.201265	-0.027402
O9	O	1.181259	-0.261391	-0.461438
O10	O	1.681259	0.238609	0.038562
O11	O	1.364598	-0.240476	-0.521954
O12	O	1.864598	0.259524	-0.021954
O13	O	1.241674	-0.285655	-0.278135
O14	O	1.741674	0.214345	0.221865
O15	O	1.132913	-0.158185	-0.407835
O16	O	1.632913	0.341815	0.092165
O17	O	1.369675	-0.293019	-0.419780
O18	O	1.869675	0.206981	0.080220
O19	O	1.229897	-0.163765	-0.515158
O20	O	1.729897	0.336235	-0.015158
O21	O	1.139613	-0.227531	-0.272985
O22	O	1.639613	0.272469	0.227015
O23	O	0.998000	-0.227126	-0.400954
O24	O	1.498000	0.272874	0.099046
O25	O	1.120764	-0.292307	-0.644709
O26	O	1.620764	0.207693	-0.144709
O27	O	0.992763	-0.284942	-0.503063
O28	O	1.492763	0.215058	-0.003063
O29	O	1.222985	-0.240071	-0.649922
O30	O	1.722985	0.259929	-0.149922
O31	O	1.234762	-0.361961	-0.412899
O32	O	1.734762	0.138039	0.087101
O33	O	1.127464	-0.361654	-0.509859
O34	O	1.627464	0.138346	-0.009859
C35	C	0.965209	-0.255165	-0.450479
C36	C	1.465209	0.244835	0.049521
C37	C	0.872781	-0.252513	-0.445810
C38	C	1.372781	0.247487	0.054190
C39	C	0.659806	-0.275145	-0.485656
C40	C	1.159806	0.224855	0.014344
C41	C	0.703559	-0.247675	-0.437285
C42	C	1.203559	0.252325	0.062715
C43	C	0.797723	-0.250367	-0.442030
C44	C	1.297723	0.249633	0.057970
C45	C	0.565634	-0.272453	-0.480913
C46	C	1.065634	0.227547	0.019087
C47	C	1.181111	-0.378108	-0.461389
C48	C	1.681111	0.121892	0.038611
C49	C	1.181122	-0.428043	-0.461400
C50	C	1.681122	0.071957	0.038600
C51	C	1.237222	-0.737843	-0.411033
C52	C	1.737222	-0.237843	0.088967
C53	C	1.237323	-0.925520	-0.411071
C54	C	1.737323	-0.425520	0.088929
O55	O	1.284903	-0.949914	-0.368210
O56	O	1.784903	-0.449914	0.131790
N57	N	1.181428	-0.948840	-0.461509
N58	N	1.681428	-0.448840	0.038491
C59	C	1.125508	-0.925237	-0.511946
C60	C	1.625508	-0.425237	-0.011946
O61	O	1.077974	-0.949378	-0.554854
O62	O	1.577974	-0.449378	-0.054854
C63	C	1.125412	-0.737561	-0.511912
C64	C	1.625412	-0.237561	-0.011912
C65	C	1.181304	-0.714244	-0.461464
C66	C	1.681304	-0.214244	0.038536
C67	C	1.293110	-0.714526	-0.360590
C68	C	1.793110	-0.214526	0.139410
C69	C	1.293082	-0.667610	-0.360578
C70	C	1.793082	-0.167610	0.139422
C71	C	1.237164	-0.644010	-0.411009
C72	C	1.737164	-0.144010	0.088991
C73	C	1.181275	-0.667328	-0.461452
C74	C	1.681275	-0.167328	0.038548
C75	C	1.069496	-0.713960	-0.562353
C76	C	1.569496	-0.213960	-0.062353
C77	C	1.069478	-0.667038	-0.562341
C78	C	1.569478	-0.167038	-0.062341
C79	C	1.125371	-0.643721	-0.511893
C80	C	1.625371	-0.143721	-0.011893
C81	C	1.125329	-0.596812	-0.511871
C82	C	1.625329	-0.096812	-0.011871
N83	N	1.181224	-0.573492	-0.461432
N84	N	1.681224	-0.073492	0.038568
C85	C	1.237141	-0.597092	-0.411001
C86	C	1.737141	-0.097092	0.088999
C87	C	1.125562	-1.023770	-0.511959
C88	C	1.625562	-0.523770	-0.011959
C89	C	1.125584	-1.070688	-0.511966
C90	C	1.625584	-0.570688	-0.011966
C91	C	1.237400	-1.070968	-0.411092
C92	C	1.737400	-0.570968	0.088908
C93	C	1.237373	-1.024048	-0.411081
C94	C	1.737373	-0.524048	0.088919
C95	C	1.181456	-1.000450	-0.461520
C96	C	1.681456	-0.500450	0.038480
C97	C	1.237076	-0.498563	-0.410979
C98	C	1.737076	0.001437	0.089021
C99	C	1.237040	-0.451643	-0.410969
C100	C	1.737040	0.048357	0.089031
C101	C	1.125227	-0.451367	-0.511846
C102	C	1.625227	0.048633	-0.011846
C103	C	1.125260	-0.498283	-0.511853
C104	C	1.625260	0.001717	-0.011853
C105	C	1.181191	-0.521881	-0.461417
C106	C	1.681191	-0.021881	0.038583
O107	O	1.077780	-0.572389	-0.554716
O108	O	1.577780	-0.072389	-0.054716
O109	O	1.284680	-0.572943	-0.368113
O110	O	1.784680	-0.072943	0.131887
C111	C	1.237251	-0.784760	-0.411046
C112	C	1.737251	-0.284760	0.088954
C113	C	1.181362	-0.808077	-0.461489
C114	C	1.681362	-0.308077	0.038511
C115	C	1.125445	-0.784478	-0.511920
C116	C	1.625445	-0.284478	-0.011920
C117	C	1.181385	-0.854996	-0.461496
C118	C	1.681385	-0.354996	0.038504
C119	C	1.237302	-0.878595	-0.411065
C120	C	1.737302	-0.378595	0.088935
C121	C	1.293197	-0.855276	-0.360627
C122	C	1.793197	-0.355276	0.139373
C123	C	1.293168	-0.808359	-0.360615
C124	C	1.793168	-0.308359	0.139385
C125	C	1.069550	-0.807797	-0.562358
C126	C	1.569550	-0.307797	-0.062358
C127	C	1.069583	-0.854714	-0.562365
C128	C	1.569583	-0.354714	-0.062365
C129	C	1.125500	-0.878313	-0.511935
C130	C	1.625500	-0.378313	-0.011935
C131	C	1.398152	-0.267642	-0.472440
C132	C	1.898152	0.232358	0.027560
C133	C	1.490579	-0.270305	-0.477129
C134	C	1.990579	0.229695	0.022871
C135	C	1.170309	-0.266990	-0.678331
C136	C	1.670309	0.233010	-0.178331
C137	C	1.165642	-0.269375	-0.770758
C138	C	1.665642	0.230625	-0.270758
C139	C	1.181429	-0.144219	-0.461506
C140	C	1.681429	0.355781	0.038494
C141	C	1.181502	-0.094287	-0.461535
C142	C	1.681502	0.405713	0.038465
C143	C	1.157092	-0.273720	-0.939983
C144	C	1.657092	0.226280	-0.439983
C145	C	1.205590	-0.248932	-0.983753
C146	C	1.705590	0.251068	-0.483753
C147	C	1.200833	-0.251349	-1.077915
C148	C	1.700833	0.248651	-0.577915
C149	C	1.161848	-0.271303	-0.845812
C150	C	1.661848	0.228697	-0.345812
C151	C	1.192215	-0.255783	-0.245390
C152	C	1.692215	0.244217	0.254610
C153	C	1.197042	-0.253275	-0.152972
C154	C	1.697042	0.246725	0.347028
H155	H	0.670298	-0.222134	-0.392310
H156	H	1.170298	0.277866	0.107690
C157	C	1.063724	-0.425399	-0.567321
C158	C	1.563724	0.074601	-0.067321
N159	N	1.017404	-0.405839	-0.609110
N160	N	1.517404	0.094161	-0.109110
H161	H	0.693066	-0.300684	-0.530627
H162	H	1.193066	0.199316	-0.030627
C163	C	1.298915	-1.096936	-0.355622
C164	C	1.798915	-0.596936	0.144378
N165	N	1.345249	-1.116498	-0.313850
N166	N	1.845249	-0.616498	0.186150
H167	H	1.250683	-0.225893	-0.950508
H168	H	1.750683	0.274107	-0.450508
H169	H	1.338650	-0.733736	-0.319523
H170	H	1.838650	-0.233736	0.180477
H171	H	1.282554	-0.432659	-0.369885
H172	H	1.782554	0.067341	0.130115
H173	H	1.112003	-0.296757	-0.973226
H174	H	1.612003	0.203243	-0.473226
C175	C	1.064091	-1.096331	-0.567454
C176	C	1.564091	-0.596331	-0.067454
N177	N	1.017775	-1.115645	-0.609254
N178	N	1.517775	-0.615645	-0.109254
H179	H	1.079750	-0.517269	-0.552935
H180	H	1.579750	-0.017269	-0.052935
H181	H	1.282622	-0.517771	-0.369911
H182	H	1.782622	-0.017771	0.130089
C183	C	1.354562	-0.641966	-0.305074
C184	C	1.854562	-0.141966	0.194926
N185	N	1.400870	-0.622655	-0.263262
N186	N	1.900870	-0.122655	0.236738
C187	C	1.298861	-0.998404	-0.355587
C188	C	1.798861	-0.498404	0.144413
N189	N	1.345178	-0.979091	-0.313789
N190	N	1.845178	-0.479091	0.186211
C191	C	1.064065	-0.997819	-0.567473
C192	C	1.564065	-0.497819	-0.067473
N193	N	1.017752	-0.978275	-0.609294
N194	N	1.517752	-0.478275	-0.109294
C195	C	1.008011	-0.739599	-0.617853
C196	C	1.508011	-0.239599	-0.117853
N197	N	0.961698	-0.758909	-0.659661
N198	N	1.461698	-0.258909	-0.159661
H199	H	1.023945	-0.647827	-0.603418
H200	H	1.523945	-0.147827	-0.103418
H201	H	1.338681	-0.789378	-0.319535
H202	H	1.838681	-0.289378	0.180465
C203	C	1.354706	-0.881244	-0.305152
C204	C	1.854706	-0.381244	0.194848
N205	N	1.401034	-0.900806	-0.263373
N206	N	1.901034	-0.400806	0.236627
H207	H	1.024061	-0.873695	-0.603445
H208	H	1.524061	-0.373695	-0.103445
H209	H	1.024016	-0.788586	-0.603426
H210	H	1.524016	-0.288586	-0.103426
