data_functionalizedCrystal
_audit_creation_method	'MofGen! by Chris Wilmer'
_symmetry_space_group_name_H-M	'P1'
_symmetry_Int_Tables_number	1
_symmetry_cell_setting	triclinic
loop_
_symmetry_equiv_pos_as_xyz
  x,y,z
_cell_length_a	15.298852
_cell_length_b	21.295419
_cell_length_c	15.296720
_cell_angle_alpha	99.657722
_cell_angle_beta	88.404329
_cell_angle_gamma	99.650947
loop_
_atom_site_label
_atom_site_type_symbol
_atom_site_fract_x
_atom_site_fract_y
_atom_site_fract_z
Zn1	Zn	-0.434016	-0.962250	0.435050
Zn2	Zn	0.065984	-0.462250	0.935050
Zn3	Zn	-0.555143	-0.997576	0.263259
Zn4	Zn	-0.055143	-0.497576	0.763259
Zn5	Zn	-0.408743	-0.871626	0.288582
Zn6	Zn	0.091257	-0.371626	0.788582
Zn7	Zn	-0.580472	-0.877726	0.409680
Zn8	Zn	-0.080472	-0.377726	0.909680
O9	O	-0.494593	-0.927295	0.349143
O10	O	0.005407	-0.427295	0.849143
O11	O	-0.450060	-1.055021	0.412281
O12	O	0.049940	-0.555021	0.912281
O13	O	-0.514546	-0.993100	0.144043
O14	O	-0.014546	-0.493100	0.644043
O15	O	-0.289534	-0.866312	0.329227
O16	O	0.210466	-0.366312	0.829227
O17	O	-0.539052	-1.080974	0.286067
O18	O	-0.039052	-0.580974	0.786067
O19	O	-0.308102	-0.932893	0.436836
O20	O	0.191898	-0.432893	0.936836
O21	O	-0.406986	-0.900565	0.162649
O22	O	0.093014	-0.400565	0.662649
O23	O	-0.431547	-0.784351	0.304627
O24	O	0.068453	-0.284351	0.804627
O25	O	-0.582221	-0.876707	0.535620
O26	O	-0.082221	-0.376707	1.035620
O27	O	-0.557715	-0.788832	0.393596
O28	O	-0.057715	-0.288832	0.893596
O29	O	-0.474621	-0.938807	0.554259
O30	O	0.025379	-0.438807	1.054259
O31	O	-0.681064	-0.999014	0.261466
O32	O	-0.181064	-0.499014	0.761466
O33	O	-0.699673	-0.910960	0.369041
O34	O	-0.199673	-0.410960	0.869041
C35	C	-0.494638	-0.763753	0.349107
C36	C	0.005362	-0.263753	0.849107
C37	C	-0.494681	-0.693790	0.349108
C38	C	0.005319	-0.193790	0.849108
C39	C	-0.448451	-0.647436	0.414898
C40	C	0.051549	-0.147436	0.914898
C41	C	-0.448431	-0.581690	0.414904
C42	C	0.051569	-0.081690	0.914904
C43	C	-0.494658	-0.562302	0.349126
C44	C	0.005342	-0.062302	0.849126
C45	C	-0.540890	-0.608665	0.283325
C46	C	-0.040890	-0.108665	0.783325
C47	C	-0.540902	-0.674409	0.283316
C48	C	-0.040902	-0.174409	0.783316
N49	N	-0.570113	-0.470583	0.329036
N50	N	-0.070113	0.029417	0.829036
N51	N	-0.570100	-0.408128	0.329050
N52	N	-0.070100	0.091872	0.829050
C53	C	-0.494624	-0.364221	0.349149
C54	C	0.005376	0.135779	0.849149
N55	N	-0.419162	-0.385125	0.369250
N56	N	0.080838	0.114875	0.869250
N57	N	-0.419176	-0.447585	0.369240
N58	N	0.080824	0.052415	0.869240
C59	C	-0.494650	-0.491016	0.349129
C60	C	0.005350	0.008984	0.849129
C61	C	-0.448367	-0.246577	0.414948
C62	C	0.051633	0.253423	0.914948
C63	C	-0.448345	-0.180831	0.414948
C64	C	0.051655	0.319169	0.914948
C65	C	-0.540812	-0.207807	0.283373
C66	C	-0.040812	0.292193	0.783373
C67	C	-0.540826	-0.273552	0.283370
C68	C	-0.040826	0.226448	0.783370
C69	C	-0.494606	-0.292933	0.349162
C70	C	0.005394	0.207067	0.849162
C71	C	-0.722151	-0.959497	0.309772
C72	C	-0.222151	-0.459497	0.809772
C73	C	-0.819506	-0.973329	0.292958
C74	C	-0.319506	-0.473329	0.792958
C75	C	-1.132780	-0.828845	0.469398
C76	C	-0.632780	-0.328845	0.969398
C77	C	-1.041311	-0.815850	0.485201
C78	C	-0.541311	-0.315850	0.985201
C79	C	-0.985855	-0.855219	0.437142
C80	C	-0.485855	-0.355219	0.937142
C81	C	-1.021877	-0.907584	0.373276
C82	C	-0.521877	-0.407584	0.873276
C83	C	-1.113356	-0.920582	0.357476
C84	C	-0.613356	-0.420582	0.857476
C85	C	-0.966431	-0.946956	0.325220
C86	C	-0.466431	-0.446956	0.825220
C87	C	-1.002453	-0.999321	0.261354
C88	C	-0.502453	-0.499321	0.761354
C89	C	-1.093923	-1.012317	0.245557
C90	C	-0.593923	-0.512317	0.745557
C91	C	-1.149378	-0.972949	0.293616
C92	C	-0.649378	-0.472949	0.793616
C93	C	-0.874952	-0.933958	0.341020
C94	C	-0.374952	-0.433958	0.841020
C95	C	-0.855528	-1.025695	0.229098
C96	C	-0.355528	-0.525695	0.729098
C97	C	-0.946997	-1.038689	0.213295
C98	C	-0.446997	-0.538689	0.713295
C99	C	-0.266151	-0.894981	0.388687
C100	C	0.233849	-0.394981	0.888687
C101	C	-0.168802	-0.881211	0.405538
C102	C	0.331198	-0.381211	0.905538
C103	C	-0.534066	-0.904497	0.577610
C104	C	-0.034066	-0.404497	1.077610
C105	C	-0.550886	-0.894782	0.674970
C106	C	-0.050886	-0.394782	1.174970
C107	C	-0.494560	-0.091477	0.349173
C108	C	0.005440	0.408523	0.849173
C109	C	-0.494571	-0.161447	0.349169
C110	C	0.005429	0.338553	0.849169
C111	C	-0.455212	-0.950031	0.121575
C112	C	0.044788	-0.450031	0.621575
C113	C	-0.438144	-0.959833	0.024259
C114	C	0.061856	-0.459833	0.524259
C115	C	-0.374220	-0.996731	0.988227
C116	C	0.125780	-0.496731	1.488227
C117	C	-0.358418	-1.005863	0.896753
C118	C	0.141582	-0.505863	1.396753
C119	C	-0.406533	-0.978094	0.841302
C120	C	0.093467	-0.478094	1.341302
C121	C	-0.470454	-0.941191	0.877335
C122	C	0.029546	-0.441191	1.377335
C123	C	-0.486263	-0.932062	0.968817
C124	C	0.013737	-0.432062	1.468817
C125	C	-0.518576	-0.913424	0.821893
C126	C	-0.018576	-0.413424	1.321893
C127	C	-0.582497	-0.876521	0.857926
C128	C	-0.082497	-0.376521	1.357926
C129	C	-0.598303	-0.867394	0.949400
C130	C	-0.098303	-0.367394	1.449400
C131	C	-0.550187	-0.895164	1.004850
C132	C	-0.050187	-0.395164	1.504850
C133	C	-0.502767	-0.922553	0.730411
C134	C	-0.002767	-0.422553	1.230411
C135	C	-0.614810	-0.857883	0.711002
C136	C	-0.114810	-0.357883	1.211002
C137	C	-0.630613	-0.848751	0.802476
C138	C	-0.130613	-0.348751	1.302476
H139	H	-0.578451	-0.192022	0.229815
H140	H	-0.078451	0.307978	0.729815
H141	H	-0.410780	-0.543942	0.468477
H142	H	0.089220	-0.043942	0.968477
H143	H	-0.410726	-0.262357	0.468516
H144	H	0.089274	0.237643	0.968516
Br145	Br	-0.603563	-0.336464	0.194073
Br146	Br	-0.103563	0.163536	0.694073
H147	H	-0.563050	-0.887730	1.079336
H148	H	-0.063050	-0.387730	1.579336
H149	H	-0.393663	-0.985531	0.766821
H150	H	0.106337	-0.485531	1.266821
Br151	Br	-1.273527	-0.990604	0.272206
Br152	Br	-0.773527	-0.490604	0.772206
Br153	Br	-0.995895	-1.109755	0.126624
Br154	Br	-0.495895	-0.609755	0.626624
H155	H	-1.177940	-0.796800	0.508525
H156	H	-0.677940	-0.296800	1.008525
Br157	Br	-0.826077	-0.862894	0.427693
Br158	Br	-0.326077	-0.362894	0.927693
H159	H	-0.410693	-0.143089	0.468521
H160	H	0.089307	0.356911	0.968521
H161	H	-0.911378	-0.844635	0.450012
H162	H	-0.411378	-0.344635	0.950012
Br163	Br	-1.142811	-1.083393	0.158897
Br164	Br	-0.642811	-0.583393	0.658897
H165	H	-0.578527	-0.592875	0.229768
H166	H	-0.078527	-0.092875	0.729768
Br167	Br	-0.992430	-0.744790	0.571876
Br168	Br	-0.492430	-0.244790	1.071876
H169	H	-0.810377	-1.057753	0.189966
H170	H	-0.310377	-0.557753	0.689966
H171	H	-0.650359	-0.837351	0.978733
H172	H	-0.150359	-0.337351	1.478733
H173	H	-0.450721	-0.952599	0.701083
H174	H	0.049279	-0.452599	1.201083
Br175	Br	-0.271674	-1.055945	0.847856
Br176	Br	0.228326	-0.555945	1.347856
Br177	Br	-0.603642	-0.737322	0.194020
Br178	Br	-0.103642	-0.237322	0.694020
H179	H	-0.335056	-1.019342	1.033381
H180	H	0.164944	-0.519342	1.533381
Br181	Br	-0.717360	-0.798670	0.851388
Br182	Br	-0.217360	-0.298670	1.351388
H183	H	-0.410814	-0.663211	0.468471
H184	H	0.089186	-0.163211	0.968471
Br185	Br	-0.680122	-0.820200	0.635754
Br186	Br	-0.180122	-0.320200	1.135754
