data_functionalizedCrystal
_audit_creation_method	'MofGen! by Chris Wilmer'
_symmetry_space_group_name_H-M	'P1'
_symmetry_Int_Tables_number	1
_symmetry_cell_setting	triclinic
loop_
_symmetry_equiv_pos_as_xyz
  x,y,z
_cell_length_a	23.532407
_cell_length_b	10.489741
_cell_length_c	8.965430
_cell_angle_alpha	90.000707
_cell_angle_beta	90.001560
_cell_angle_gamma	83.693926
loop_
_atom_site_label
_atom_site_type_symbol
_atom_site_fract_x
_atom_site_fract_y
_atom_site_fract_z
O1	O	-0.756285	-0.154816	0.123853
O2	O	-0.590571	-0.177218	0.123896
O3	O	-0.677199	0.019706	0.123864
O4	O	-0.669657	-0.351740	0.123884
O5	O	-0.677191	0.019693	-0.124214
O6	O	-0.590563	-0.177231	-0.124183
O7	O	-0.756278	-0.154829	-0.124226
Cu8	Cu	-0.673420	-0.166031	-0.146856
Cu9	Cu	-0.673429	-0.166016	0.146526
O10	O	-0.669650	-0.351753	-0.124195
C11	C	-0.569347	-0.176654	-0.000138
C12	C	-0.506119	-0.174939	-0.000121
C13	C	-0.676625	0.067213	-0.000174
C14	C	-0.674921	0.208785	-0.000171
C15	C	-0.777502	-0.155393	-0.000189
C16	C	-0.840730	-0.157108	-0.000196
C17	C	-0.107717	-0.280717	-0.000183
C18	C	-0.048306	-0.279124	-0.000192
O19	O	-0.012211	-0.377181	-0.000241
N20	N	-0.024904	-0.162052	-0.000196
C21	C	-0.060916	-0.046567	-0.000206
O22	O	-0.035555	0.053158	-0.000211
C23	C	-0.120326	-0.048161	-0.000207
C24	C	-0.143724	-0.165240	-0.000188
C25	C	-0.131116	-0.397786	-0.000166
C26	C	-0.190522	-0.399379	-0.000154
C27	C	-0.226530	-0.283902	-0.000159
C28	C	-0.203131	-0.166833	-0.000176
C29	C	-0.156337	0.067323	-0.000228
C30	C	-0.215750	0.065718	-0.000230
C31	C	-0.239148	-0.051361	-0.000211
C32	C	-0.298545	-0.052949	-0.000170
N33	N	-0.321947	-0.170020	-0.000166
C34	C	-0.285940	-0.285497	-0.000161
C35	C	0.063849	-0.043227	-0.000205
C36	C	0.123257	-0.041631	-0.000193
C37	C	0.135863	-0.274188	-0.000183
C38	C	0.076454	-0.275783	-0.000184
C39	C	0.040447	-0.160298	-0.000202
C40	C	-0.410699	-0.288833	-0.000134
C41	C	-0.470111	-0.290416	-0.000116
C42	C	-0.482712	-0.057859	-0.000135
C43	C	-0.423305	-0.056275	-0.000145
C44	C	-0.387299	-0.171773	-0.000150
O45	O	-0.334675	0.045057	-0.000127
O46	O	-0.311308	-0.385205	-0.000175
C47	C	-0.670223	-0.399259	-0.000153
C48	C	-0.671927	-0.540832	-0.000146
N49	N	-0.673418	-0.166041	-0.353205
C50	C	-0.619802	0.275093	-0.000145
C51	C	-0.645836	0.368075	-0.122468
C52	C	-0.645857	0.368063	0.122118
C53	C	-0.700978	0.299902	-0.122594
C54	C	-0.700991	0.299881	0.122102
C55	C	-0.727065	0.392836	-0.000251
C56	C	-0.633343	-0.257083	-0.450496
C57	C	-0.684905	-0.281179	-0.549922
C58	C	-0.621878	-0.141955	-0.549907
C59	C	-0.725006	-0.190195	-0.450442
C60	C	-0.661945	-0.050921	-0.450418
C61	C	-0.713544	-0.074968	-0.549799
N62	N	-0.673435	-0.165995	0.352875
H63	H	-0.489158	-0.385759	-0.000100
H64	H	-0.768610	-0.210664	-0.406935
H65	H	-0.381389	-0.382882	-0.000143
C66	C	-0.759384	0.029067	-0.608349
H67	H	-0.795964	0.011759	-0.574107
H68	H	-0.751539	0.110623	-0.572772
H69	H	-0.758935	0.028980	-0.714305
C70	C	0.175479	-0.401212	-0.000190
H71	H	0.214211	-0.383485	-0.000207
H72	H	0.168339	-0.449254	0.086320
H73	H	0.168334	-0.449249	-0.086712
H74	H	-0.652214	0.046382	-0.406677
H75	H	-0.512040	0.036159	-0.000133
C76	C	-0.562988	-0.114443	-0.608914
H77	H	-0.534556	-0.179222	-0.574891
H78	H	-0.563512	-0.113841	-0.714858
H79	H	-0.554560	-0.033300	-0.573359
H80	H	0.034534	0.050821	-0.000206
C81	C	-0.216253	-0.528167	-0.000162
H82	H	-0.186293	-0.596702	-0.000179
H83	H	-0.239167	-0.533640	0.086343
H84	H	-0.239164	-0.533623	-0.086689
H85	H	-0.622531	0.398256	0.225543
C86	C	-0.255354	0.192755	-0.000233
H87	H	-0.232906	0.262703	-0.000230
H88	H	-0.278798	0.196970	-0.086735
H89	H	-0.278787	0.196972	0.086297
C90	C	-0.732473	0.258981	0.261792
H91	H	-0.712838	0.282032	0.348627
H92	H	-0.770361	0.300913	0.262664
H93	H	-0.733627	0.168746	0.260285
H94	H	-0.101804	-0.491827	-0.000167
C95	C	0.050720	-0.404568	-0.000176
H96	H	0.080679	-0.473107	-0.000180
H97	H	0.027806	-0.410026	0.086330
H98	H	0.027810	-0.410033	-0.086702
C99	C	-0.587604	-0.361171	-0.391574
H100	H	-0.560542	-0.322250	-0.333269
H101	H	-0.605333	-0.420280	-0.331818
H102	H	-0.568712	-0.405186	-0.473292
C103	C	0.148989	0.087156	-0.000199
H104	H	0.119031	0.155694	-0.000211
H105	H	0.171906	0.092625	0.086304
H106	H	0.171898	0.092610	-0.086728
H107	H	-0.574484	0.223935	-0.000257
H108	H	-0.137297	0.162661	-0.000244
H109	H	-0.622511	0.398305	-0.225871
C110	C	-0.397565	0.072507	-0.000150
H111	H	-0.427521	0.141051	-0.000155
H112	H	-0.374645	0.077970	0.086350
H113	H	-0.374658	0.077958	-0.086682
C114	C	-0.732448	0.259299	-0.262463
H115	H	-0.733320	0.168970	-0.261646
H116	H	-0.770437	0.300677	-0.262832
H117	H	-0.712989	0.283181	-0.349208
H118	H	-0.772424	0.443768	-0.000331
C119	C	-0.698026	-0.412661	-0.608990
H120	H	-0.669511	-0.477272	-0.575002
H121	H	-0.734370	-0.430389	-0.573477
H122	H	-0.698279	-0.411441	-0.714942
