data_functionalizedCrystal
_audit_creation_method	'MofGen! by Chris Wilmer'
_symmetry_space_group_name_H-M	'P1'
_symmetry_Int_Tables_number	1
_symmetry_cell_setting	triclinic
loop_
_symmetry_equiv_pos_as_xyz
  x,y,z
_cell_length_a	6.817900
_cell_length_b	17.982783
_cell_length_c	16.015572
_cell_angle_alpha	78.159762
_cell_angle_beta	104.485554
_cell_angle_gamma	102.448572
loop_
_atom_site_label
_atom_site_type_symbol
_atom_site_fract_x
_atom_site_fract_y
_atom_site_fract_z
V1	V	-3.990105	-0.030701	-0.269497
O2	O	-3.983625	0.078252	-0.263999
O3	O	-3.936766	-0.134716	-0.268009
O4	O	-3.928047	0.003460	-0.386873
O5	O	-3.992405	-0.060880	-0.144312
V6	V	-4.476142	-0.021650	-0.254481
O7	O	-4.245847	-0.050556	-0.302437
O8	O	-4.670598	-0.001794	-0.221542
O9	O	-4.306275	0.082365	-0.255970
O10	O	-4.600019	-0.130603	-0.259980
O11	O	-4.591239	0.008529	-0.379667
O12	O	-4.314994	-0.055810	-0.137106
C13	C	-3.781008	-0.161125	-0.263849
C14	C	-3.818593	-0.245942	-0.263414
C15	C	-3.805786	-0.296833	-0.184124
C16	C	-3.841121	-0.376527	-0.183719
C17	C	-3.889248	-0.405328	-0.262604
C18	C	-3.902060	-0.354431	-0.341900
C19	C	-3.866740	-0.274739	-0.342305
C20	C	-4.044505	-0.675821	-0.340270
C21	C	-4.079819	-0.755520	-0.339858
C22	C	-4.018886	-0.777610	-0.181683
C23	C	-3.983566	-0.697917	-0.182088
C24	C	-3.996392	-0.647027	-0.261384
C25	C	-3.958082	-0.560614	-0.261823
C26	C	-3.927543	-0.491740	-0.262166
C27	C	-3.769884	0.015132	-0.415471
C28	C	-3.800395	0.042374	-0.511428
C29	C	-4.077549	-0.199424	-0.889883
C30	C	-4.106225	-0.173801	-0.980046
C31	C	-4.035531	-0.041239	-0.954888
C32	C	-4.006838	-0.066850	-0.864721
C33	C	-4.027854	-0.145944	-0.832227
C34	C	-3.957143	-0.013370	-0.807065
C35	C	-3.928464	-0.038980	-0.716906
C36	C	-3.949480	-0.118070	-0.684405
C37	C	-3.999175	-0.171553	-0.742069
C38	C	-3.936143	0.065723	-0.839561
C39	C	-3.886448	0.119203	-0.781905
C40	C	-3.857753	0.093593	-0.691744
C41	C	-3.878770	0.014503	-0.659243
C42	C	-3.808059	0.147077	-0.634080
C43	C	-3.779380	0.121467	-0.543922
C44	C	-3.850091	-0.011106	-0.569084
C45	C	-4.125375	0.108770	-0.260127
C46	C	-4.067028	0.193587	-0.260568
C47	C	-4.136499	-0.067486	-0.108503
C48	C	-4.085227	-0.094725	-0.012545
H49	H	-3.877190	-0.233303	-0.406872
O50	O	-4.058226	-0.620941	-0.425793
H51	H	-4.025570	-0.560685	-0.412828
H52	H	-4.016260	-0.235958	-0.715610
H53	H	-3.944370	-0.674472	-0.117851
H54	H	-4.146684	-0.217357	-1.026988
H55	H	-3.869350	0.183601	-0.808375
O56	O	-3.953984	-0.385489	-0.426988
H57	H	-3.976378	-0.449454	-0.413388
H58	H	-3.867176	-0.075511	-0.542625
H59	H	-3.766583	-0.273390	-0.119886
O60	O	-3.918526	-0.145700	-0.587163
H61	H	-4.031329	-0.125768	-0.561239
O62	O	-3.785396	0.232382	-0.669131
H63	H	-3.813681	0.241205	-0.741510
O64	O	-4.005060	-0.832497	-0.096151
H65	H	-4.037722	-0.892753	-0.109117
O66	O	-4.100205	-0.284732	-0.854823
H67	H	-4.139586	-0.317622	-0.910061
O68	O	-4.012832	0.044066	-0.989939
H69	H	-4.126010	0.069015	-0.969899
H70	H	-3.959466	0.086572	-0.912974
O71	O	-3.725742	0.179141	-0.481721
H72	H	-3.849912	0.213923	-0.496276
O73	O	-3.827280	-0.431419	-0.098199
H74	H	-3.787846	-0.398003	-0.043412
H75	H	-4.119010	-0.778966	-0.404100
