data_functionalizedCrystal
_audit_creation_method	'MofGen! by Chris Wilmer'
_symmetry_space_group_name_H-M	'P1'
_symmetry_Int_Tables_number	1
_symmetry_cell_setting	triclinic
loop_
_symmetry_equiv_pos_as_xyz
  x,y,z
_cell_length_a	27.732064
_cell_length_b	27.732048
_cell_length_c	22.010155
_cell_angle_alpha	89.999275
_cell_angle_beta	89.999243
_cell_angle_gamma	82.646040
loop_
_atom_site_label
_atom_site_type_symbol
_atom_site_fract_x
_atom_site_fract_y
_atom_site_fract_z
O1	O	0.640925	0.057548	-0.050423
O2	O	0.500133	0.066286	-0.050449
O3	O	0.574902	-0.008479	-0.050424
O4	O	0.566157	0.132313	-0.050449
O5	O	0.574888	-0.008468	0.050627
O6	O	0.500120	0.066297	0.050601
O7	O	0.640912	0.057560	0.050627
Cu8	Cu	0.570514	0.061929	0.059841
Cu9	Cu	0.570531	0.061916	-0.059663
O10	O	0.566143	0.132325	0.050602
C11	C	0.482120	0.066106	0.000073
C12	C	0.428465	0.065551	0.000064
C13	C	0.051392	0.017583	0.000107
C14	C	0.253053	0.019630	0.000090
O15	O	0.284305	-0.017591	0.000120
N16	N	0.272180	0.063964	0.000080
C17	C	0.240889	0.107790	0.000077
O18	O	0.261785	0.145546	0.000074
C19	C	0.039230	0.105743	0.000098
C20	C	0.020105	0.061406	0.000102
C21	C	0.032267	-0.026750	0.000112
C22	C	-0.018145	-0.027261	0.000112
C23	C	-0.049432	0.016561	0.000108
C24	C	-0.030307	0.060895	0.000103
C25	C	0.007940	0.149568	0.000100
C26	C	-0.042478	0.149053	0.000106
C27	C	-0.061602	0.104716	0.000111
C28	C	-0.112006	0.104206	0.000099
N29	N	-0.131134	0.059872	0.000110
C30	C	-0.099846	0.016049	0.000114
C31	C	0.346763	0.108861	0.000065
C32	C	0.397178	0.109373	0.000059
C33	C	0.409338	0.021213	0.000073
C34	C	0.358923	0.020701	0.000075
C35	C	0.327636	0.064527	0.000076
C36	C	-0.205716	0.014979	0.000115
C37	C	-0.256133	0.014472	0.000113
C38	C	-0.268289	0.102632	0.000103
C39	C	-0.217876	0.103140	0.000101
C40	C	-0.186590	0.059309	0.000110
O41	O	-0.143287	0.141407	0.000077
O42	O	-0.120752	-0.021701	0.000131
C43	C	0.101804	0.018094	0.000106
C44	C	0.120930	0.062428	0.000101
C45	C	0.089642	0.106250	0.000097
C46	C	0.171344	0.062940	0.000095
C47	C	0.202631	0.019117	0.000099
C48	C	0.183504	-0.025217	0.000109
C49	C	0.133092	-0.025728	0.000110
C50	C	0.108770	0.150585	0.000086
C51	C	0.159183	0.151092	0.000085
C52	C	0.190470	0.107270	0.000089
C53	C	0.574712	-0.026481	0.000103
C54	C	0.574159	-0.080136	0.000108
C55	C	0.614862	-0.418948	0.000084
C56	C	0.612811	-0.620608	0.000075
O57	O	0.650032	-0.651862	0.000056
N58	N	0.568476	-0.639735	0.000068
C59	C	0.524651	-0.608442	0.000058
O60	O	0.486895	-0.629338	0.000045
C61	C	0.526703	-0.406784	0.000063
C62	C	0.571040	-0.387660	0.000077
C63	C	0.659196	-0.399824	0.000097
C64	C	0.659709	-0.349412	0.000103
C65	C	0.615887	-0.318124	0.000095
C66	C	0.571553	-0.337248	0.000082
C67	C	0.482878	-0.375493	0.000049
C68	C	0.483395	-0.325075	0.000049
C69	C	0.527733	-0.305952	0.000063
C70	C	0.528243	-0.255548	0.000080
N71	N	0.572578	-0.236422	0.000088
C72	C	0.616400	-0.267710	0.000095
C73	C	0.523577	-0.714317	0.000057
C74	C	0.523064	-0.764731	0.000057
C75	C	0.611225	-0.776893	0.000073
C76	C	0.611737	-0.726478	0.000077
C77	C	0.567912	-0.695190	0.000065
C78	C	0.617472	-0.161841	0.000107
C79	C	0.617981	-0.111424	0.000115
C80	C	0.529821	-0.099266	0.000096
C81	C	0.529312	-0.149679	0.000092
C82	C	0.573142	-0.180965	0.000095
O83	O	0.491043	-0.224267	0.000093
O84	O	0.654151	-0.246805	0.000095
C85	C	0.614350	-0.469360	0.000079
C86	C	0.570016	-0.488484	0.000066
C87	C	0.526194	-0.457196	0.000058
C88	C	0.569503	-0.538899	0.000066
C89	C	0.613325	-0.570187	0.000073
C90	C	0.657660	-0.551060	0.000081
C91	C	0.658172	-0.500648	0.000086
C92	C	0.481859	-0.476323	0.000050
C93	C	0.481351	-0.526735	0.000046
C94	C	0.525172	-0.558023	0.000053
C95	C	0.658925	0.057739	0.000104
C96	C	0.712580	0.058295	0.000109
C97	C	0.566333	0.150326	0.000074
C98	C	0.566886	0.203981	0.000065
N99	N	0.570507	0.061938	0.143893
N100	N	0.570542	0.061903	-0.143715
C101	C	0.603640	0.028815	0.563684
C102	C	0.603642	0.028811	0.627292
O103	O	0.631794	0.000655	0.660193
N104	N	0.570530	0.061906	0.659100
C105	C	0.537411	0.095003	0.627298
O106	O	0.509246	0.123151	0.660195
C107	C	0.537406	0.095003	0.563692
C108	C	0.570524	0.061910	0.531886
C109	C	0.636754	-0.004276	0.531878
C110	C	0.636753	-0.004272	0.468275
C111	C	0.603636	0.028823	0.436478
C112	C	0.570522	0.061914	0.468283
C113	C	0.504285	0.128097	0.531891
C114	C	0.504283	0.128095	0.468280
C115	C	0.537401	0.095001	0.436475
C116	C	0.537404	0.095013	0.372882
N117	N	0.570516	0.061919	0.341074
C118	C	0.603632	0.028823	0.372871
C119	C	0.537421	0.094998	0.760876
C120	C	0.537427	0.095000	0.824482
C121	C	0.603659	0.028808	0.824470
C122	C	0.603654	0.028809	0.760864
C123	C	0.570533	0.061904	0.729067
C124	C	0.603626	0.028835	0.239300
C125	C	0.603623	0.028843	0.175691
C126	C	0.537390	0.095033	0.175708
C127	C	0.537395	0.095027	0.239311
C128	C	0.570515	0.061923	0.271105
O129	O	0.509266	0.123154	0.339941
O130	O	0.631788	0.000675	0.339967
H131	H	-0.202304	0.139243	0.000097
H132	H	0.630621	0.001861	0.734971
O133	O	0.635845	-0.003340	0.270085
C134	C	0.701517	-0.069011	0.263344
C135	C	0.665063	-0.032595	0.228405
H136	H	0.725142	-0.092680	0.229660
H137	H	0.725544	-0.048337	0.293106
H138	H	0.680824	-0.093001	0.293137
H139	H	0.685716	-0.008596	0.198578
H140	H	0.641036	-0.053300	0.198680
O141	O	0.635807	-0.003410	0.855297
C142	C	0.664737	-0.087658	0.874793
C143	C	0.628313	-0.051227	0.839832
H144	H	0.658685	-0.126326	0.862312
H145	H	0.703416	-0.081667	0.862277
H146	H	0.659054	-0.081948	0.925714
H147	H	0.633952	-0.056916	0.788903
H148	H	0.589647	-0.057228	0.852399
H149	H	0.208987	-0.060899	0.000109
H150	H	0.663722	-0.031229	0.557762
O151	O	-0.298667	0.145212	-0.000008
C152	C	-0.324482	0.220415	-0.052341
C153	C	-0.290058	0.172208	-0.052303
H154	H	-0.317527	0.242260	-0.094610
H155	H	-0.363808	0.212457	-0.052375
H156	H	-0.317573	0.242234	-0.010033
H157	H	-0.296923	0.150365	-0.094604
H158	H	-0.250744	0.180200	-0.052237
O159	O	0.026572	0.192605	0.000170
C160	C	0.076410	0.244370	0.052515
C161	C	0.055350	0.195608	0.052510
H162	H	0.099674	0.246819	0.094833
H163	H	0.099737	0.246815	0.010249
H164	H	0.045378	0.275595	0.052482
H165	H	0.086351	0.164356	0.052563
H166	H	0.032010	0.193205	0.094772
O167	O	0.439256	-0.445983	-0.000034
C168	C	0.364077	-0.420148	-0.052407
C169	C	0.412305	-0.454540	-0.052385
H170	H	0.342277	-0.427048	-0.094735
H171	H	0.342204	-0.427075	-0.010150
H172	H	0.372062	-0.380832	-0.052371
H173	H	0.404364	-0.493869	-0.052442
H174	H	0.434163	-0.447572	-0.094639
H175	H	0.510451	0.121952	0.734991
H176	H	0.510465	0.121953	0.850373
H177	H	-0.180248	-0.020712	0.000122
O178	O	0.480958	-0.683996	0.000077
C179	C	0.393462	-0.677266	0.000033
C180	C	0.441692	-0.711657	0.000020
H181	H	0.361703	-0.699616	-0.000027
H182	H	0.391458	-0.653369	0.042333
H183	H	0.391524	-0.653349	-0.042246
H184	H	0.443663	-0.735605	0.042270
H185	H	0.443677	-0.735521	-0.042308
H186	H	0.477317	0.155045	0.557778
H187	H	0.434821	-0.014469	0.000075
H188	H	0.646906	-0.802377	0.000079
O189	O	0.316354	0.151423	0.000166
C190	C	0.252361	0.202015	0.052487
C191	C	0.286777	0.153802	0.052461
H192	H	0.228433	0.203949	0.094756
H193	H	0.274672	0.233805	0.052514
H194	H	0.228477	0.203968	0.010179
H195	H	0.310669	0.151801	0.094762
H196	H	0.264438	0.122034	0.052402
O197	O	-0.072800	0.191671	0.000078
C198	C	-0.079536	0.279167	0.000104
C199	C	-0.045143	0.230939	0.000126
H200	H	-0.057189	0.310928	0.000156
H201	H	-0.103434	0.281164	-0.042195
H202	H	-0.103453	0.281109	0.042384
H203	H	-0.021195	0.228965	-0.042125
H204	H	-0.021278	0.228962	0.042453
H205	H	0.446774	-0.391054	0.000034
O206	O	0.661095	-0.092929	0.000099
C207	C	0.748483	-0.110322	0.000150
C208	C	0.699693	-0.131330	0.000155
H209	H	0.779703	-0.141359	0.000208
H210	H	0.750967	-0.087039	-0.042147
H211	H	0.750897	-0.087009	0.042432
H212	H	0.697246	-0.154664	-0.042098
H213	H	0.697230	-0.154585	0.042480
H214	H	0.693341	-0.576544	0.000090
H215	H	0.117526	-0.061832	0.000114
O216	O	0.440777	-0.294752	0.000064
C217	C	0.353281	-0.288014	0.000000
C218	C	0.401508	-0.322408	-0.000003
H219	H	0.321519	-0.310360	-0.000066
H220	H	0.351273	-0.264117	0.042301
H221	H	0.351351	-0.264096	-0.042278
H222	H	0.403471	-0.346357	0.042247
H223	H	0.403496	-0.346272	-0.042331
H224	H	0.510433	0.121979	0.265208
O225	O	0.062587	-0.069367	0.000087
C226	C	0.069310	-0.156863	0.000126
C227	C	0.034923	-0.108631	0.000146
H228	H	0.046958	-0.188621	0.000187
H229	H	0.093204	-0.158867	-0.042178
H230	H	0.093231	-0.158806	0.042401
H231	H	0.010971	-0.106656	-0.042100
H232	H	0.011062	-0.106648	0.042478
O233	O	0.340290	-0.022337	0.000164
C234	C	0.290465	-0.074095	0.052550
C235	C	0.311521	-0.025330	0.052516
H236	H	0.267210	-0.076536	0.094878
H237	H	0.267132	-0.076552	0.010293
H238	H	0.321500	-0.105317	0.052520
H239	H	0.280518	0.005919	0.052567
H240	H	0.334867	-0.022916	0.094769
O241	O	0.472091	0.160292	0.437489
C242	C	0.406377	0.225923	0.444219
C243	C	0.442814	0.189493	0.479164
H244	H	0.382690	0.249534	0.477898
H245	H	0.427035	0.249967	0.414457
H246	H	0.382408	0.205210	0.414423
H247	H	0.466792	0.210166	0.508993
H248	H	0.422125	0.165449	0.508887
H249	H	0.510429	0.121980	0.149808
O250	O	0.177697	0.194197	-0.000003
C251	C	0.182736	0.269692	-0.052376
C252	C	0.161731	0.220901	-0.052351
H253	H	0.169844	0.291292	-0.094702
H254	H	0.169804	0.291361	-0.010117
H255	H	0.224142	0.262528	-0.052345
H256	H	0.120324	0.228021	-0.052404
H257	H	0.174700	0.199247	-0.094607
H258	H	0.653163	-0.187309	0.000108
O259	O	0.668938	-0.036470	0.437478
C260	C	0.734645	-0.102108	0.444204
C261	C	0.698214	-0.065674	0.479151
H262	H	0.758330	-0.125722	0.477881
H263	H	0.713982	-0.126149	0.414445
H264	H	0.758615	-0.081398	0.414405
H265	H	0.674233	-0.086344	0.508983
H266	H	0.718907	-0.041633	0.508871
O267	O	0.702821	-0.330920	0.000084
C268	C	0.790209	-0.348323	0.000133
C269	C	0.741416	-0.369325	0.000142
H270	H	0.821425	-0.379363	0.000192
H271	H	0.792695	-0.325043	-0.042166
H272	H	0.792626	-0.325009	0.042413
H273	H	0.738965	-0.392661	-0.042110
H274	H	0.738951	-0.392578	0.042468
H275	H	-0.271701	-0.021634	0.000115
H276	H	-0.033711	-0.063365	0.000118
H277	H	0.412744	0.145477	0.000047
H278	H	0.694883	-0.425295	0.000101
O279	O	0.654776	-0.707846	0.000004
C280	C	0.706544	-0.658019	-0.052360
C281	C	0.657779	-0.679075	-0.052344
H282	H	0.708993	-0.634762	-0.094685
H283	H	0.708993	-0.634688	-0.010101
H284	H	0.737766	-0.689054	-0.052324
H285	H	0.626530	-0.648071	-0.052401
H286	H	0.655373	-0.702420	-0.094599
O287	O	0.486232	-0.168236	-0.000026
C288	C	0.410723	-0.173234	-0.052384
C289	C	0.459498	-0.152199	-0.052324
H290	H	0.389090	-0.160268	-0.094655
H291	H	0.417855	-0.214643	-0.052430
H292	H	0.389099	-0.160337	-0.010078
H293	H	0.481147	-0.165058	-0.094622
H294	H	0.452332	-0.110792	-0.052246
O295	O	0.487241	-0.068889	0.000193
C296	C	0.412022	-0.043077	0.052495
C297	C	0.460231	-0.077499	0.052476
H298	H	0.390167	-0.050033	0.094754
H299	H	0.419979	-0.003751	0.052536
H300	H	0.390216	-0.049986	0.010178
H301	H	0.482062	-0.070634	0.094786
H302	H	0.452240	-0.116814	0.052403
H303	H	0.630593	0.001894	0.149797
O304	O	0.701285	-0.482156	0.000068
C305	C	0.788672	-0.499559	0.000119
C306	C	0.739879	-0.520561	0.000127
H307	H	0.819888	-0.530599	0.000179
H308	H	0.791158	-0.476279	-0.042179
H309	H	0.791089	-0.476245	0.042400
H310	H	0.737429	-0.543897	-0.042125
H311	H	0.737413	-0.543814	0.042453
O312	O	0.438290	-0.545332	0.000139
C313	C	0.386540	-0.595214	0.052440
C314	C	0.435315	-0.574179	0.052425
H315	H	0.384124	-0.618550	0.094703
H316	H	0.355290	-0.564206	0.052473
H317	H	0.384111	-0.618487	0.010126
H318	H	0.437792	-0.550912	0.094733
H319	H	0.466542	-0.605209	0.052362
H320	H	0.083300	0.186271	0.000083
H321	H	0.486960	-0.780296	0.000057
