data_functionalizedCrystal
_audit_creation_method	'MofGen! by Chris Wilmer'
_symmetry_space_group_name_H-M	'P1'
_symmetry_Int_Tables_number	1
_symmetry_cell_setting	triclinic
loop_
_symmetry_equiv_pos_as_xyz
  x,y,z
_cell_length_a	14.044220
_cell_length_b	14.519709
_cell_length_c	12.996460
_cell_angle_alpha	89.999966
_cell_angle_beta	89.993022
_cell_angle_gamma	91.565489
loop_
_atom_site_label
_atom_site_type_symbol
_atom_site_fract_x
_atom_site_fract_y
_atom_site_fract_z
O1	O	0.124273	-1.233893	-0.085435
O2	O	0.138907	-0.966596	-0.085466
O3	O	-0.006401	-1.096232	-0.085441
O4	O	0.269581	-1.104256	-0.085460
O5	O	-0.006409	-1.096217	0.085693
O6	O	0.138899	-0.966581	0.085667
O7	O	0.124265	-1.233877	0.085699
Cu8	Cu	0.131581	-1.100228	0.101309
Cu9	Cu	0.131591	-1.100246	-0.101076
O10	O	0.269573	-1.104241	0.085674
C11	C	0.138221	-0.932174	0.000097
C12	C	0.136177	-0.829628	0.000085
C13	C	-0.041726	-1.092712	0.000126
C14	C	-0.146969	-1.082235	0.000126
C15	C	0.124951	-1.268300	0.000134
C16	C	0.126995	-1.370846	0.000139
C17	C	-0.339663	-1.063081	0.000109
C18	C	-0.397170	-1.137389	0.000115
C19	C	-0.504392	-1.126731	0.000105
C20	C	-0.232432	-1.073737	0.000118
C21	C	0.304898	-1.107761	0.000104
C22	C	0.410141	-1.118238	0.000098
N23	N	0.131574	-1.100221	0.243656
C24	C	0.128653	-0.454125	0.000132
C25	C	0.130743	-0.558601	0.000119
C26	C	0.132415	-0.641873	0.000107
C27	C	0.134505	-0.746356	0.000096
N28	N	0.131591	-1.100259	-0.243424
C29	C	0.131592	-1.100245	0.663470
C30	C	0.131590	-1.100236	0.546665
C31	C	0.131584	-1.100233	0.453567
C32	C	0.131580	-1.100224	0.336754
H33	H	-0.365878	-1.209010	0.000054
H34	H	-0.370954	-0.991465	0.000098
