data_functionalizedCrystal
_audit_creation_method	'MofGen! by Chris Wilmer'
_symmetry_space_group_name_H-M	'P1'
_symmetry_Int_Tables_number	1
_symmetry_cell_setting	triclinic
loop_
_symmetry_equiv_pos_as_xyz
  x,y,z
_cell_length_a	29.019771
_cell_length_b	29.019011
_cell_length_c	29.015668
_cell_angle_alpha	60.004890
_cell_angle_beta	60.009825
_cell_angle_gamma	59.993818
loop_
_atom_site_label
_atom_site_type_symbol
_atom_site_fract_x
_atom_site_fract_y
_atom_site_fract_z
O1	O	0.063866	-0.673289	0.563007
O2	O	0.024059	-0.524205	0.453633
O3	O	0.118464	-0.618532	0.453552
O4	O	-0.030540	-0.578962	0.563088
O5	O	0.149785	-0.587215	0.484789
O6	O	0.055379	-0.492888	0.484869
O7	O	0.095186	-0.641972	0.594244
Cu8	Cu	0.078143	-0.564571	0.542409
Cu9	Cu	0.041102	-0.601606	0.505468
O10	O	0.000781	-0.547645	0.594325
N11	N	0.104196	-0.538525	0.568394
N12	N	0.015054	-0.627656	0.479483
C13	C	0.143783	-0.499167	0.850823
C14	C	0.386758	-0.499111	0.607645
C15	C	0.143618	-0.499136	0.607763
C16	C	0.143598	-0.256029	0.607770
C17	C	0.182748	-0.373362	0.646852
C18	C	0.182758	-0.460025	0.646847
C19	C	0.204440	-0.438361	0.668500
C20	C	0.298958	-0.422064	0.618723
C21	C	0.358043	-0.441753	0.599006
C22	C	0.358069	-0.537354	0.635461
C23	C	0.298985	-0.517664	0.655180
C24	C	0.196983	-0.343808	0.588767
C25	C	0.177262	-0.284720	0.569090
C26	C	0.129075	-0.284743	0.665586
C27	C	0.148797	-0.343831	0.685263
C28	C	0.124666	-0.445760	0.661149
C29	C	0.104961	-0.465454	0.641458
C30	C	0.201435	-0.513678	0.593176
C31	C	0.221143	-0.493984	0.612860
C32	C	0.124738	-0.445777	0.763064
C33	C	0.105085	-0.465488	0.822151
C34	C	0.201594	-0.513722	0.822097
C35	C	0.221247	-0.494012	0.763009
C36	C	0.182817	-0.460038	0.733494
C37	C	0.269432	-0.460018	0.646809
C38	C	0.121399	-0.520450	0.915812
C39	C	0.451745	-0.520012	0.585655
C40	C	0.121177	-0.520429	0.586502
C41	C	0.121544	-0.191035	0.586883
C42	C	-0.110592	-0.666601	0.440035
C43	C	-0.023978	-0.666709	0.440231
C44	C	-0.045598	-0.688342	0.418486
C45	C	-0.061967	-0.782825	0.468184
C46	C	-0.042323	-0.841914	0.487907
C47	C	0.053280	-0.842025	0.451623
C48	C	0.033634	-0.782937	0.431899
C49	C	-0.140218	-0.680832	0.498102
C50	C	-0.199302	-0.661065	0.517690
C51	C	-0.199129	-0.612843	0.421140
C52	C	-0.140045	-0.632610	0.401552
C53	C	-0.038209	-0.608622	0.425941
C54	C	-0.018555	-0.588961	0.445716
C55	C	0.029562	-0.685470	0.494059
C56	C	0.009908	-0.705133	0.474291
C57	C	-0.038037	-0.608631	0.323917
C58	C	-0.018247	-0.588973	0.264830
C59	C	0.029955	-0.685489	0.264893
C60	C	0.010165	-0.705145	0.323981
C61	C	-0.023833	-0.666715	0.353492
C62	C	-0.023990	-0.753339	0.440182
N63	N	0.504925	-0.538487	0.568205
O64	O	0.685342	-0.543679	0.433426
O65	O	0.685533	-0.653395	0.582361
O66	O	0.685457	-0.653145	0.487904
O67	O	0.685418	-0.543929	0.527882
O68	O	0.591592	-0.621921	0.519268
O69	O	0.591667	-0.622171	0.613725
O70	O	0.591477	-0.512455	0.464790
Cu71	Cu	0.583001	-0.564462	0.542121
Cu72	Cu	0.694008	-0.601388	0.505029
O73	O	0.591553	-0.512705	0.559246
N74	N	0.772084	-0.627363	0.478939
N75	N	0.104168	-0.137853	0.568408
O76	O	-0.030538	0.042663	0.563097
O77	O	0.118403	0.042683	0.453379
O78	O	0.023918	0.042657	0.453664
O79	O	0.063947	0.042689	0.562813
O80	O	0.055242	-0.051215	0.484950
O81	O	0.149727	-0.051189	0.484666
O82	O	0.000787	-0.051210	0.594384
Cu83	Cu	0.078117	-0.059771	0.542381
Cu84	Cu	0.041072	0.051244	0.505382
O85	O	0.095272	-0.051184	0.594099
N86	N	0.015015	0.129326	0.479356
N87	N	0.104469	-0.538576	0.968995
O88	O	0.099171	-0.673268	1.149499
O89	O	-0.010519	-0.524279	1.149527
O90	O	-0.010265	-0.618748	1.149494
O91	O	0.098916	-0.578799	1.149533
O92	O	0.021008	-0.587443	1.055625
O93	O	0.020753	-0.492974	1.055659
O94	O	0.130444	-0.641963	1.055630
Cu95	Cu	0.078454	-0.564610	1.047074
Cu96	Cu	0.041470	-0.601632	1.158084
O97	O	0.130189	-0.547494	1.055664
N98	N	0.015455	-0.627672	1.236163
C99	C	0.035988	-0.489761	0.454182
C100	C	0.152897	-0.606574	0.454082
C101	C	0.083257	-0.676417	0.593694
C102	C	-0.033653	-0.559604	0.593794
C103	C	0.638623	-0.652892	0.616806
C104	C	0.638531	-0.652583	0.499833
C105	C	0.638384	-0.512957	0.430345
C106	C	0.638480	-0.513267	0.547317
C107	C	0.152789	-0.004135	0.453875
C108	C	0.035820	-0.004282	0.454266
C109	C	-0.033639	-0.004275	0.593849
C110	C	0.083370	-0.004245	0.593498
C111	C	-0.009989	-0.489856	1.102597
C112	C	-0.009667	-0.606839	1.102536
C113	C	0.129914	-0.676386	1.102561
C114	C	0.129599	-0.559396	1.102601
H115	H	0.093440	-0.418108	0.739036
H116	H	-0.076413	-0.004282	0.628294
O117	O	0.191111	-0.255946	0.512676
C118	C	0.236556	-0.189241	0.434433
C119	C	0.220895	-0.221780	0.498329
H120	H	0.260649	-0.161620	0.422812
H121	H	0.196462	-0.161542	0.422802
H122	H	0.264187	-0.220510	0.410374
H123	H	0.193279	-0.190553	0.522432
H124	H	0.261012	-0.249488	0.509917
H125	H	0.027247	-0.004286	0.419974
H126	H	-0.108889	-0.758731	0.474933
H127	H	0.195476	-0.003868	0.419344
H128	H	0.638471	-0.478960	0.555871
O129	O	0.093547	-0.004315	0.634481
C130	C	0.098913	-0.052963	0.728443
C131	C	0.087362	-0.052946	0.682081
H132	H	0.093929	-0.092284	0.766935
H133	H	0.067655	-0.013707	0.740832
H134	H	0.143752	-0.052928	0.711865
H135	H	0.042540	-0.053002	0.698620
H136	H	0.118656	-0.092199	0.669699
H137	H	0.638547	-0.686893	0.491276
H138	H	-0.044426	-0.447066	1.102605
O139	O	-0.050501	-0.617098	1.102450
C140	C	-0.076298	-0.684134	1.102383
C141	C	-0.030000	-0.672586	1.102468
H142	H	-0.059744	-0.729000	1.102410
H143	H	-0.088608	-0.652907	1.063077
H144	H	-0.114838	-0.679054	1.141645
H145	H	0.008570	-0.677675	1.063233
H146	H	-0.017738	-0.703812	1.141800
O147	O	0.025787	-0.438696	0.413182
C148	C	-0.031441	-0.370712	0.353770
C149	C	-0.019941	-0.428558	0.400195
H150	H	-0.068419	-0.362491	0.343264
H151	H	0.007699	-0.370504	0.314348
H152	H	-0.042140	-0.336295	0.369360
H153	H	-0.009256	-0.463007	0.384659
H154	H	-0.059091	-0.428717	0.439607
H155	H	0.164353	-0.719173	1.102545
H156	H	0.638671	-0.687334	0.659583
H157	H	0.163899	-0.550848	1.102605
H158	H	0.057789	-0.453866	0.846219
H159	H	0.232890	-0.541375	0.846122
H160	H	0.638322	-0.478510	0.387573
H161	H	0.268542	-0.505632	0.738936
H162	H	0.093408	-0.418110	0.688821
O163	O	0.203953	-0.616539	0.413024
C164	C	0.286859	-0.589188	0.351339
C165	C	0.229045	-0.577833	0.397826
H166	H	0.307168	-0.557909	0.339045
H167	H	0.280970	-0.584066	0.312824
H168	H	0.315261	-0.634030	0.367764
H169	H	0.200613	-0.532994	0.381454
H170	H	0.234978	-0.582992	0.436332
H171	H	0.057658	-0.453826	0.653091
H172	H	0.232695	-0.541333	0.565509
H173	H	0.274946	-0.548573	0.678050
O174	O	0.277592	-0.507896	0.598922
C175	C	0.371206	-0.557738	0.548888
C176	C	0.307294	-0.542046	0.564650
H177	H	0.395239	-0.585341	0.521168
H178	H	0.382920	-0.581834	0.588939
H179	H	0.382772	-0.517616	0.524857
H180	H	0.295682	-0.582139	0.588667
H181	H	0.295614	-0.517929	0.524579
H182	H	-0.076451	-0.551170	0.628189
H183	H	0.382132	-0.584293	0.642268
H184	H	0.274901	-0.375125	0.611905
O185	O	0.386699	-0.404848	0.571637
C186	C	0.404699	-0.322919	0.492017
C187	C	0.372221	-0.364683	0.522949
H188	H	0.392996	-0.290428	0.452653
H189	H	0.452012	-0.346859	0.479316
H190	H	0.393104	-0.300528	0.521211
H191	H	0.383769	-0.387085	0.493787
H192	H	0.324916	-0.340712	0.535659
O193	O	0.229877	-0.372472	0.551437
C194	C	0.237386	-0.390515	0.474985
C195	C	0.200070	-0.358029	0.517241
H196	H	0.213305	-0.378841	0.447318
H197	H	0.249025	-0.437830	0.498998
H198	H	0.277475	-0.378894	0.447328
H199	H	0.159957	-0.369603	0.544908
H200	H	0.188476	-0.310722	0.493192
O201	O	0.096085	-0.256140	0.702972
C202	C	0.050416	-0.262396	0.800761
C203	C	0.087770	-0.294857	0.758483
H204	H	0.043692	-0.293684	0.845650
H205	H	0.007875	-0.234756	0.794025
H206	H	0.072062	-0.234709	0.793902
H207	H	0.066174	-0.322574	0.765317
H208	H	0.130309	-0.322461	0.765230
O209	O	-0.032129	-0.532528	0.236194
C210	C	-0.082011	-0.438875	0.242374
C211	C	-0.066343	-0.502782	0.274875
H212	H	-0.109666	-0.414806	0.273633
H213	H	-0.106040	-0.427193	0.214654
H214	H	-0.041885	-0.427315	0.214765
H215	H	-0.106440	-0.514387	0.302514
H216	H	-0.042292	-0.514430	0.302559
O217	O	-0.071198	-0.571348	0.392923
C218	C	-0.161088	-0.537462	0.382229
C219	C	-0.123781	-0.579716	0.419669
H220	H	-0.203613	-0.544204	0.403843
H221	H	-0.139427	-0.544291	0.339733
H222	H	-0.167855	-0.492576	0.375408
H223	H	-0.117002	-0.624619	0.426534
H224	H	-0.145460	-0.572837	0.462141
O225	O	0.062985	-0.722897	0.236319
C226	C	0.108665	-0.820704	0.242626
C227	C	0.071263	-0.778399	0.275056
H228	H	0.115360	-0.865587	0.273931
H229	H	0.151215	-0.814001	0.215053
H230	H	0.087073	-0.813839	0.214877
H231	H	0.092805	-0.785239	0.302835
H232	H	0.028715	-0.785113	0.302593
H233	H	0.137197	-0.367895	0.732563
H234	H	-0.065723	-0.577332	0.347941
H235	H	-0.030145	-0.541661	0.434082
O236	O	0.062538	-0.722852	0.527074
C237	C	0.149447	-0.799353	0.534773
C238	C	0.112152	-0.757057	0.497327
H239	H	0.189574	-0.827011	0.510734
H240	H	0.125372	-0.827016	0.574830
H241	H	0.161023	-0.775313	0.546468
H242	H	0.100567	-0.781050	0.485590
H243	H	0.136249	-0.729394	0.457298
O244	O	0.023707	-0.761569	0.488248
C245	C	0.019044	-0.850040	0.563128
C246	C	0.003390	-0.786140	0.547416
H247	H	0.002614	-0.869923	0.610965
H248	H	0.066885	-0.870043	0.546939
H249	H	-0.000813	-0.857455	0.543104
H250	H	0.023209	-0.778675	0.567435
H251	H	-0.044456	-0.766170	0.563594
H252	H	0.021738	-0.752445	0.348058
O253	O	0.093311	-0.727467	0.634748
C254	C	0.056283	-0.785513	0.729867
C255	C	0.044826	-0.727670	0.683428
H256	H	0.017087	-0.785700	0.769232
H257	H	0.093200	-0.793747	0.740475
H258	H	0.067035	-0.819933	0.714253
H259	H	0.034049	-0.693213	0.699003
H260	H	0.007924	-0.719485	0.672828
H261	H	0.100203	-0.866125	0.444882
O262	O	0.070600	-0.754381	0.404731
C263	C	0.167504	-0.760730	0.370795
C264	C	0.125700	-0.793139	0.401585
H265	H	0.212062	-0.792052	0.368232
H266	H	0.155658	-0.733076	0.394963
H267	H	0.165740	-0.733062	0.326356
H268	H	0.127442	-0.820837	0.446025
H269	H	0.137559	-0.820758	0.377374
H270	H	-0.073247	-0.865920	0.510699
H271	H	-0.223425	-0.672650	0.564976
O272	O	-0.111666	-0.713906	0.535535
C273	C	-0.093717	-0.800872	0.612023
C274	C	-0.126096	-0.763464	0.569668
H275	H	-0.105362	-0.840954	0.639622
H276	H	-0.105379	-0.776846	0.639735
H277	H	-0.046402	-0.812526	0.588035
H278	H	-0.173418	-0.751800	0.593610
H279	H	-0.114387	-0.787512	0.541957
O280	O	-0.227657	-0.579815	0.383683
C281	C	-0.221253	-0.534117	0.285850
C282	C	-0.188877	-0.571515	0.328207
H283	H	-0.189914	-0.527405	0.240989
H284	H	-0.248885	-0.491571	0.292575
H285	H	-0.248935	-0.555726	0.292634
H286	H	-0.161164	-0.549956	0.321449
H287	H	-0.161280	-0.614060	0.321472
H288	H	-0.115923	-0.621016	0.354266
