data_functionalizedCrystal
_audit_creation_method	'MofGen! by Chris Wilmer'
_symmetry_space_group_name_H-M	'P1'
_symmetry_Int_Tables_number	1
_symmetry_cell_setting	triclinic
loop_
_symmetry_equiv_pos_as_xyz
  x,y,z
_cell_length_a	17.699104
_cell_length_b	19.288865
_cell_length_c	18.366186
_cell_angle_alpha	89.988521
_cell_angle_beta	90.009934
_cell_angle_gamma	96.786118
loop_
_atom_site_label
_atom_site_type_symbol
_atom_site_fract_x
_atom_site_fract_y
_atom_site_fract_z
O1	O	1.003947	-0.087906	0.060573
O2	O	1.503947	0.412094	0.560573
O3	O	0.783555	-0.099319	0.060572
O4	O	1.283555	0.400681	0.560572
O5	O	0.900119	0.007510	0.060558
O6	O	1.400119	0.507510	0.560558
O7	O	0.887383	-0.194735	0.060587
O8	O	1.387383	0.305265	0.560587
O9	O	0.900100	0.007515	-0.060541
O10	O	1.400100	0.507515	0.439459
O11	O	0.783535	-0.099313	-0.060527
O12	O	1.283535	0.400687	0.439473
O13	O	1.003927	-0.087901	-0.060527
O14	O	1.503927	0.412099	0.439473
Zn15	Zn	0.893728	-0.093606	-0.079754
Zn16	Zn	1.393728	0.406394	0.420246
Zn17	Zn	0.893754	-0.093613	0.079800
Zn18	Zn	1.393754	0.406387	0.579800
O19	O	0.887363	-0.194729	-0.060513
O20	O	1.387363	0.305271	0.439487
C21	C	0.755349	-0.098905	0.000022
C22	C	1.255349	0.401095	0.500022
C23	C	0.671333	-0.097670	0.000021
C24	C	1.171333	0.402330	0.500021
C25	C	0.146384	-0.153416	0.000037
C26	C	0.646384	0.346584	0.500037
C27	C	0.225326	-0.154572	0.000039
C28	C	0.725326	0.345428	0.500039
C29	C	0.274032	-0.091859	0.000030
C30	C	0.774032	0.408141	0.500030
C31	C	0.243792	-0.027987	0.000026
C32	C	0.743792	0.472013	0.500026
C33	C	0.164851	-0.026832	0.000029
C34	C	0.664851	0.473168	0.500029
C35	C	0.562151	-0.032643	0.000015
C36	C	1.062151	0.467357	0.500015
C37	C	0.641097	-0.033802	0.000010
C38	C	1.141097	0.466198	0.500010
C39	C	0.622626	-0.160382	0.000025
C40	C	1.122626	0.339618	0.500025
C41	C	0.543686	-0.159227	0.000028
C42	C	1.043686	0.340773	0.500028
C43	C	0.513453	-0.095356	0.000028
C44	C	1.013453	0.404644	0.500028
C45	C	0.427854	-0.094103	0.000027
C46	C	0.927854	0.405897	0.500027
C47	C	0.359629	-0.093111	0.000026
C48	C	0.859629	0.406889	0.500026
C49	C	0.899700	0.033390	0.000006
C50	C	1.399700	0.533390	0.500006
C51	C	0.898469	0.110495	-0.000000
C52	C	1.398469	0.610495	0.500000
C53	C	1.032133	-0.088315	0.000025
C54	C	1.532133	0.411685	0.500025
C55	C	1.116149	-0.089549	0.000031
C56	C	1.616149	0.410451	0.500031
C57	C	0.887783	-0.220609	0.000041
C58	C	1.387783	0.279391	0.500041
C59	C	0.889013	-0.297714	0.000052
C60	C	1.389013	0.202286	0.500052
N61	N	0.893716	-0.093601	-0.188645
N62	N	1.393716	0.406399	0.311355
C63	C	0.966864	0.155105	-0.000004
C64	C	1.466864	0.655105	0.499996
C65	C	0.965708	0.227554	0.000008
C66	C	1.465708	0.727554	0.500008
C67	C	0.896154	0.255389	0.000008
C68	C	1.396154	0.755389	0.500008
C69	C	0.827750	0.210768	0.000016
C70	C	1.327750	0.710768	0.500016
C71	C	0.828908	0.138321	0.000011
C72	C	1.328908	0.638321	0.500011
C73	C	0.841469	0.363746	-0.042410
C74	C	1.341469	0.863746	0.457590
C75	C	0.840314	0.436192	-0.042411
C76	C	1.340314	0.936192	0.457589
C77	C	0.892580	0.478839	0.000024
C78	C	1.392580	0.978839	0.500024
C79	C	0.946014	0.449032	0.042451
C80	C	1.446014	0.949032	0.542451
C81	C	0.947172	0.376585	0.042446
C82	C	1.447172	0.876585	0.542446
C83	C	0.894891	0.333944	0.000013
C84	C	1.394891	0.833944	0.500013
C85	C	0.959727	0.602007	0.000035
C86	C	1.459727	1.102007	0.500035
C87	C	0.958568	0.674456	0.000051
C88	C	1.458568	1.174456	0.500051
C89	C	0.820608	0.657669	0.000051
C90	C	1.320608	1.157669	0.500051
C91	C	0.821769	0.585221	0.000042
C92	C	1.321769	1.085221	0.500042
C93	C	0.891330	0.557395	0.000031
C94	C	1.391330	1.057395	0.500031
C95	C	0.945347	-0.046320	-0.226752
C96	C	1.445347	0.453680	0.273248
C97	C	0.945352	-0.046317	-0.302980
C98	C	1.445352	0.453683	0.197020
C99	C	0.893733	-0.093607	-0.341098
C100	C	1.393733	0.406393	0.158902
C101	C	0.842092	-0.140891	-0.302982
C102	C	1.342092	0.359109	0.197018
C103	C	0.842083	-0.140888	-0.226756
C104	C	1.342083	0.359112	0.273244
C105	C	0.883601	-0.156882	-0.461849
C106	C	1.383601	0.343118	0.038151
C107	C	0.883615	-0.156886	-0.538074
C108	C	1.383615	0.343114	-0.038074
C109	C	0.893754	-0.093615	-0.576205
C110	C	1.393754	0.406385	-0.076205
C111	C	0.903896	-0.030339	-0.538102
C112	C	1.403896	0.469661	-0.038102
C113	C	0.903888	-0.030336	-0.461876
C114	C	1.403888	0.469664	0.038124
C115	C	0.893736	-0.093615	-0.423753
C116	C	1.393736	0.406385	0.076247
C117	C	0.945394	-0.046328	-0.696967
C118	C	1.445394	0.453672	-0.196967
C119	C	0.945393	-0.046324	-0.773196
C120	C	1.445393	0.453676	-0.273196
C121	C	0.842136	-0.140903	-0.773197
C122	C	1.342136	0.359097	-0.273197
C123	C	0.842133	-0.140901	-0.696969
C124	C	1.342133	0.359099	-0.196969
C125	C	0.893766	-0.093614	-0.658859
C126	C	1.393766	0.406386	-0.158859
N127	N	0.893772	-0.093613	0.188691
N128	N	1.393772	0.406387	0.688691
H129	H	1.023506	0.132454	-0.000011
H130	H	1.523506	0.632454	0.499989
H131	H	0.796802	0.460455	-0.076952
H132	H	1.296802	0.960455	0.423048
H133	H	0.140236	0.025175	0.000025
H134	H	0.640236	0.525175	0.500025
C135	C	0.915055	0.039264	-0.580033
C136	C	1.415055	0.539264	-0.080033
H137	H	0.921101	0.076946	-0.546423
H138	H	1.421101	0.576946	-0.046423
H139	H	0.871830	0.043076	-0.609781
H140	H	1.371830	0.543076	-0.109781
H141	H	0.959137	0.040712	-0.609756
H142	H	1.459137	0.540712	-0.109756
C143	C	0.753673	0.089245	0.000013
C144	C	1.253673	0.589245	0.500013
H145	H	0.764325	0.042112	0.000014
H146	H	1.264325	0.542112	0.500014
H147	H	0.725130	0.097678	-0.042213
H148	H	1.225130	0.597678	0.457787
H149	H	0.725153	0.097658	0.042253
H150	H	1.225153	0.597658	0.542253
C151	C	0.872460	-0.226484	-0.579984
C152	C	1.372460	0.273516	-0.079984
H153	H	0.873927	-0.217425	-0.630842
H154	H	1.373927	0.282575	-0.130842
H155	H	0.824639	-0.251300	-0.567500
H156	H	1.324639	0.248700	-0.067500
H157	H	0.911946	-0.253661	-0.567472
H158	H	1.411946	0.246339	-0.067472
C159	C	0.915031	0.039261	-0.419963
C160	C	1.415031	0.539261	0.080037
H161	H	0.921175	0.076943	-0.453583
H162	H	1.421175	0.576943	0.046417
H163	H	0.959037	0.040674	-0.390133
H164	H	1.459037	0.540674	0.109867
H165	H	0.871741	0.043107	-0.390322
H166	H	1.371741	0.543107	0.109678
C167	C	1.040943	0.276637	-0.000001
C168	C	1.540943	0.776637	0.499999
H169	H	1.030289	0.323769	0.000007
H170	H	1.530289	0.823769	0.500007
H171	H	1.069464	0.268222	-0.042234
H172	H	1.569464	0.768222	0.457766
H173	H	1.069486	0.268207	0.042231
H174	H	1.569486	0.768207	0.542231
C175	C	0.785354	-0.192922	-0.815115
C176	C	1.285354	0.307078	-0.315115
H177	H	0.754600	-0.221080	-0.781499
H178	H	1.254600	0.278920	-0.281499
H179	H	0.812480	-0.221807	-0.844837
H180	H	1.312480	0.278193	-0.344837
H181	H	0.753936	-0.167966	-0.844863
H182	H	1.253936	0.332034	-0.344863
H183	H	0.249939	-0.206579	0.000051
H184	H	0.749939	0.293421	0.500051
C185	C	0.694672	0.035185	0.000010
C186	C	1.194672	0.535185	0.500010
H187	H	0.665361	0.073390	0.000018
H188	H	1.165361	0.573390	0.500018
H189	H	0.725844	0.037372	-0.042221
H190	H	1.225844	0.537372	0.457779
H191	H	0.725858	0.037353	0.042245
H192	H	1.225858	0.537353	0.542245
H193	H	0.988574	0.483753	0.077006
H194	H	1.488574	0.983753	0.577006
C195	C	0.297362	0.040997	0.000022
C196	C	0.797362	0.540997	0.500022
H197	H	0.268047	0.079200	0.000028
H198	H	0.768047	0.579200	0.500028
H199	H	0.328535	0.043185	-0.042207
H200	H	0.828535	0.543185	0.457793
H201	H	0.328547	0.043171	0.042258
H202	H	0.828547	0.543171	0.542258
H203	H	0.875331	-0.208408	-0.430809
H204	H	1.375331	0.291592	0.069191
H205	H	0.537546	0.019365	0.000013
H206	H	1.037546	0.519365	0.500013
H207	H	0.987388	-0.007815	-0.195724
H208	H	1.487388	0.492185	0.304276
H209	H	1.016368	0.579350	0.000028
H210	H	1.516368	1.079350	0.500028
H211	H	0.763975	0.680331	0.000055
H212	H	1.263975	1.180331	0.500055
C213	C	1.002186	0.005689	-0.815117
C214	C	1.502186	0.505689	-0.315117
H215	H	0.994791	-0.001077	-0.865974
H216	H	1.494791	0.498923	-0.365974
H217	H	1.052669	-0.001801	-0.802613
H218	H	1.552669	0.498199	-0.302613
H219	H	0.994124	0.052041	-0.802635
H220	H	1.494124	0.552041	-0.302635
C221	C	1.002175	0.005692	-0.655039
C222	C	1.502175	0.505692	-0.155039
H223	H	0.994781	-0.001083	-0.604183
H224	H	1.494781	0.498917	-0.104183
H225	H	0.994114	0.052039	-0.667545
H226	H	1.494114	0.552039	-0.167545
H227	H	1.052663	-0.001797	-0.667516
H228	H	1.552663	0.498203	-0.167516
C229	C	1.005936	0.343798	0.089119
C230	C	1.505936	0.843798	0.589119
H231	H	1.036897	0.379568	0.114398
H232	H	1.536897	0.879568	0.614398
H233	H	1.036942	0.319259	0.058533
H234	H	1.536942	0.819259	0.558533
H235	H	0.980216	0.312347	0.123233
H236	H	1.480216	0.812347	0.623233
H237	H	1.014266	0.710778	0.000052
H238	H	1.514266	1.210778	0.500052
H239	H	0.800093	-0.179404	-0.665941
H240	H	1.300093	0.320596	-0.165941
H241	H	0.766074	0.548898	0.000041
H242	H	1.266074	1.048898	0.500041
H243	H	0.800061	-0.179394	-0.334022
H244	H	1.300061	0.320606	0.165978
H245	H	0.800038	-0.179390	-0.195729
H246	H	1.300038	0.320610	0.304271
H247	H	0.798906	0.329029	-0.076970
H248	H	1.298906	0.829029	0.423030
H249	H	0.106733	-0.204484	0.000039
H250	H	0.606733	0.295516	0.500039
H251	H	0.504032	-0.210294	0.000032
H252	H	1.004032	0.289706	0.500032
H253	H	0.647251	-0.212390	0.000028
H254	H	1.147251	0.287610	0.500028
C255	C	0.751241	0.241380	0.000019
C256	C	1.251241	0.741380	0.500019
H257	H	0.710671	0.204432	0.000026
H258	H	1.210671	0.704432	0.500026
H259	H	0.747910	0.269302	-0.042209
H260	H	1.247910	0.769302	0.457791
H261	H	0.747933	0.269282	0.042257
H262	H	1.247933	0.769282	0.542257
C263	C	1.002150	0.005689	-0.344909
C264	C	1.502150	0.505689	0.155091
H265	H	0.994757	-0.001084	-0.395765
H266	H	1.494757	0.498916	0.104235
H267	H	1.052631	-0.001803	-0.332401
H268	H	1.552631	0.498197	0.167599
H269	H	0.994092	0.052043	-0.332435
H270	H	1.494092	0.552043	0.167565
