data_functionalizedCrystal
_audit_creation_method	'MofGen! by Chris Wilmer'
_symmetry_space_group_name_H-M	'P1'
_symmetry_Int_Tables_number	1
_symmetry_cell_setting	triclinic
loop_
_symmetry_equiv_pos_as_xyz
  x,y,z
_cell_length_a	15.995350
_cell_length_b	17.038272
_cell_length_c	15.072220
_cell_angle_alpha	89.999202
_cell_angle_beta	89.991149
_cell_angle_gamma	87.301966
loop_
_atom_site_label
_atom_site_type_symbol
_atom_site_fract_x
_atom_site_fract_y
_atom_site_fract_z
O1	O	1.118174	0.100774	-0.073708
O2	O	1.618174	0.600774	0.426292
O3	O	0.875285	0.113219	-0.073726
O4	O	1.375285	0.613219	0.426274
O5	O	0.995286	-0.006819	-0.073710
O6	O	1.495286	0.493181	0.426290
O7	O	0.998173	0.220812	-0.073724
O8	O	1.498173	0.720812	0.426276
O9	O	0.995255	-0.006813	0.073855
O10	O	1.495255	0.493187	0.573855
O11	O	0.875254	0.113226	0.073839
O12	O	1.375254	0.613226	0.573839
O13	O	1.118143	0.100781	0.073857
O14	O	1.618143	0.600781	0.573857
Zn15	Zn	0.996694	0.107004	0.097277
Zn16	Zn	1.496694	0.607004	0.597277
Zn17	Zn	0.996735	0.106995	-0.097146
Zn18	Zn	1.496735	0.606995	0.402854
O19	O	0.998142	0.220819	0.073841
O20	O	1.498142	0.720819	0.573841
C21	C	0.844038	0.112708	0.000054
C22	C	1.344038	0.612708	0.500054
C23	C	0.750978	0.111165	0.000047
C24	C	1.250978	0.611165	0.500047
C25	C	0.412836	0.105626	0.000066
C26	C	0.912836	0.605626	0.500066
C27	C	0.454180	0.020137	0.000400
C28	C	0.954180	0.520137	0.500400
C29	C	0.550981	0.021680	0.000062
C30	C	1.050981	0.521680	0.500062
C31	C	0.580592	0.108374	0.000057
C32	C	1.080592	0.608374	0.500057
C33	C	0.542527	0.150536	-0.084209
C34	C	1.042527	0.650536	0.415791
C35	C	0.445738	0.148388	-0.084273
C36	C	0.945738	0.648388	0.415727
C37	C	0.445489	0.150162	0.083536
C38	C	0.945489	0.650162	0.583536
C39	C	0.542433	0.150142	0.084644
C40	C	1.042433	0.650142	0.584644
C41	C	0.675401	0.109931	0.000049
C42	C	1.175401	0.609931	0.500049
C43	C	0.318027	0.104071	0.000068
C44	C	0.818027	0.604071	0.500068
C45	C	0.992645	-0.035945	0.000072
C46	C	1.492645	0.464055	0.500072
C47	C	0.984810	-0.122740	0.000071
C48	C	1.484810	0.377260	0.500071
C49	C	1.056739	-0.172836	0.000078
C50	C	1.556739	0.327164	0.500078
C51	C	1.049373	-0.254389	0.000069
C52	C	1.549373	0.245611	0.500069
C53	C	0.970077	-0.285843	0.000060
C54	C	1.470077	0.214157	0.500060
C55	C	0.898143	-0.235740	0.000051
C56	C	1.398143	0.264260	0.500051
C57	C	0.905510	-0.154189	0.000053
C58	C	1.405510	0.345811	0.500053
C59	C	0.944051	-0.531607	0.000046
C60	C	1.444051	-0.031607	0.500046
C61	C	0.936689	-0.613164	0.000046
C62	C	1.436689	-0.113164	0.500046
C63	C	1.087920	-0.631807	0.000062
C64	C	1.587920	-0.131807	0.500062
C65	C	1.095280	-0.550254	0.000070
C66	C	1.595280	-0.050254	0.500070
C67	C	1.023346	-0.500158	0.000056
C68	C	1.523346	-0.000158	0.500056
C69	C	0.962546	-0.369202	0.000053
C70	C	1.462546	0.130798	0.500053
C71	C	1.030878	-0.416801	0.000056
C72	C	1.530878	0.083199	0.500056
C73	C	1.149390	0.101292	0.000075
C74	C	1.649390	0.601292	0.500075
C75	C	1.242450	0.102834	0.000076
C76	C	1.742450	0.602834	0.500076
C77	C	1.000784	0.249944	0.000057
C78	C	1.500784	0.749944	0.500057
C79	C	1.008618	0.336739	0.000052
C80	C	1.508618	0.836739	0.500052
N81	N	0.996671	0.107010	0.229966
N82	N	1.496671	0.607010	0.729966
N83	N	0.996763	0.106984	-0.229835
N84	N	1.496763	0.606984	0.270165
C85	C	0.996733	0.106992	0.589168
C86	C	1.496733	0.606992	1.089168
C87	C	0.932276	0.171007	0.551552
C88	C	1.432276	0.671007	1.051552
C89	C	0.932451	0.171241	0.448726
C90	C	1.432451	0.671241	0.948726
C91	C	0.996702	0.107001	0.410963
C92	C	1.496702	0.607001	0.910963
C93	C	1.085336	0.124819	0.448260
C94	C	1.585336	0.624819	0.948260
C95	C	1.084981	0.125274	0.551118
C96	C	1.584981	0.625274	1.051118
C97	C	0.973321	0.024970	0.551271
C98	C	1.473321	0.524970	1.051271
C99	C	0.971355	0.025517	0.448408
C100	C	1.471355	0.525517	0.948408
C101	C	0.996689	0.107004	0.310250
C102	C	1.496689	0.607004	0.810250
C103	C	0.996751	0.106991	0.689881
C104	C	1.496751	0.606991	1.189881
H105	H	0.562300	0.213362	0.089730
H106	H	1.062300	0.713362	0.589730
H107	H	0.567544	0.119364	0.146983
H108	H	1.067544	0.619364	0.646983
H109	H	0.872114	-0.638770	0.000053
H110	H	1.372114	-0.138770	0.500053
H111	H	0.866755	0.160625	0.423511
H112	H	1.366755	0.660625	0.923511
O113	O	0.866469	-0.477579	0.000053
O114	O	1.366469	0.022421	0.500053
H115	H	0.810095	-0.513155	0.000063
H116	H	1.310095	-0.013155	0.500063
O117	O	0.425027	-0.024934	-0.079189
O118	O	0.925027	0.475066	0.420811
H119	H	0.443195	0.005597	-0.140816
H120	H	0.943195	0.505597	0.359184
H121	H	0.833579	-0.261356	0.000038
H122	H	1.333579	0.238644	0.500038
H123	H	1.014806	-0.024351	0.422706
H124	H	1.514806	0.475649	0.922706
O125	O	0.585504	-0.022210	0.080079
O126	O	1.085504	0.477790	0.580079
H127	H	0.533051	-0.044735	0.119364
H128	H	1.033051	0.455265	0.619364
O129	O	1.116404	-0.382883	0.000062
O130	O	1.616404	0.117117	0.500062
H131	H	1.123362	-0.346179	0.060212
H132	H	1.623362	0.153821	0.560212
O133	O	1.142269	-0.138918	0.000088
O134	O	1.642269	0.361082	0.500088
H135	H	1.135311	-0.073794	0.000097
H136	H	1.635311	0.426206	0.500097
O137	O	0.844993	0.157181	0.584355
O138	O	1.344993	0.657181	1.084355
H139	H	0.803367	0.147631	0.526827
H140	H	1.303367	0.647631	1.026827
H141	H	0.433211	-0.014032	0.060831
H142	H	0.933211	0.485968	0.560831
O143	O	0.418591	0.107651	-0.167702
O144	O	0.918591	0.607651	0.332298
H145	H	0.384141	0.054904	-0.149645
H146	H	0.884141	0.554904	0.350355
O147	O	0.584762	-0.022516	-0.080089
O148	O	1.084762	0.477484	0.419911
H149	H	0.531942	-0.045068	-0.118763
H150	H	1.031942	0.454932	0.381237
O151	O	1.126952	-0.308424	0.000090
O152	O	1.626952	0.191576	0.500090
H153	H	1.183328	-0.272852	0.000113
H154	H	1.683328	0.227148	0.500113
O155	O	0.877023	-0.403133	0.000063
O156	O	1.377023	0.096867	0.500063
H157	H	0.870063	-0.439848	-0.060078
H158	H	1.370063	0.060152	0.439922
O159	O	0.952639	0.251185	0.585761
O160	O	1.452639	0.751185	1.085761
H161	H	1.008469	0.245640	0.629436
H162	H	1.508469	0.745640	1.129436
O163	O	0.577356	0.111739	-0.167279
O164	O	1.077356	0.611739	0.332721
H165	H	0.525310	0.088914	-0.206925
H166	H	1.025310	0.588914	0.293075
O167	O	0.953059	0.251865	0.416114
O168	O	1.453059	0.751865	0.916114
H169	H	0.900461	0.276639	0.375255
H170	H	1.400461	0.776639	0.875255
H171	H	0.417961	0.211153	-0.088100
H172	H	0.917961	0.711153	0.411900
H173	H	0.561189	0.214228	-0.087345
H174	H	1.061189	0.714228	0.412655
H175	H	1.020258	-0.022668	0.575596
H176	H	1.520258	0.477332	1.075596
H177	H	0.906125	0.011995	0.424032
H178	H	1.406125	0.511995	0.924032
H179	H	0.422949	0.122217	0.147408
H180	H	0.922949	0.622217	0.647408
H181	H	0.846938	-0.113400	0.000048
H182	H	1.346938	0.386600	0.500048
O183	O	0.409359	0.233650	0.084304
O184	O	0.909359	0.733650	0.584304
H185	H	0.368342	0.243416	0.025560
H186	H	0.868342	0.743416	0.525560
H187	H	1.159850	-0.524651	0.000077
H188	H	1.659850	-0.024651	0.500077
H189	H	1.146484	-0.672604	0.000071
H190	H	1.646484	-0.172604	0.500071
O191	O	1.111132	0.204507	0.582893
O192	O	1.611132	0.704507	1.082893
H193	H	1.123908	0.242140	0.524794
H194	H	1.623908	0.742140	1.024794
H195	H	1.134687	0.079434	0.423797
H196	H	1.634687	0.579434	0.923797
O197	O	1.150823	0.065872	0.584088
O198	O	1.650823	0.565872	1.084088
H199	H	1.182781	0.036953	0.526563
H200	H	1.682781	0.536953	1.026563
O201	O	1.111913	0.203158	0.414139
O202	O	1.611913	0.703158	0.914139
H203	H	1.114576	0.201704	0.340567
H204	H	1.614576	0.701704	0.840567
O205	O	0.889133	0.002284	0.585654
O206	O	1.389133	0.502284	1.085654
H207	H	0.863037	0.049224	0.630141
H208	H	1.363037	0.549224	1.130141
