data_functionalizedCrystal
_audit_creation_method	'MofGen! by Chris Wilmer'
_symmetry_space_group_name_H-M	'P1'
_symmetry_Int_Tables_number	1
_symmetry_cell_setting	triclinic
loop_
_symmetry_equiv_pos_as_xyz
  x,y,z
_cell_length_a	12.759395
_cell_length_b	12.645330
_cell_length_c	12.759387
_cell_angle_alpha	89.971485
_cell_angle_beta	90.020509
_cell_angle_gamma	89.972277
loop_
_atom_site_label
_atom_site_type_symbol
_atom_site_fract_x
_atom_site_fract_y
_atom_site_fract_z
Zn1	Zn	1.606185	0.421940	0.594022
Zn2	Zn	1.606040	0.599242	0.418349
Zn3	Zn	1.430483	0.421998	0.418359
Zn4	Zn	1.430440	0.599167	0.593988
O5	O	1.518287	0.510587	0.506179
O6	O	1.753187	0.445467	0.570728
O7	O	1.582710	0.575786	0.271329
O8	O	1.453869	0.273643	0.441679
O9	O	1.753081	0.575730	0.441663
O10	O	1.582956	0.273600	0.570738
O11	O	1.453728	0.445565	0.271336
O12	O	1.283456	0.445492	0.441646
O13	O	1.453796	0.575601	0.741014
O14	O	1.283425	0.575657	0.570681
O15	O	1.582915	0.445394	0.741038
O16	O	1.582668	0.747579	0.441630
O17	O	1.453655	0.747524	0.570671
C18	C	1.245320	0.510574	0.506161
C19	C	1.128543	0.510594	0.506179
C20	C	1.518170	0.786016	0.506169
C21	C	1.518216	0.903846	0.506200
C22	C	1.128549	0.646354	0.640325
C23	C	1.073691	0.714242	0.707401
C24	C	0.963969	0.714255	0.707414
C25	C	0.909103	0.646370	0.640345
C26	C	0.963961	0.578482	0.573269
C27	C	1.073685	0.578478	0.573262
C28	C	0.963955	0.442718	0.439130
C29	C	1.073677	0.442709	0.439110
C30	C	0.909089	0.374833	0.372062
C31	C	0.963947	0.306948	0.304979
C32	C	1.073675	0.306939	0.304968
C33	C	1.128535	0.374820	0.372034
C34	C	1.437364	1.071420	0.587632
C35	C	1.436969	0.948860	0.587369
C36	C	1.488234	0.948450	0.395478
C37	C	1.487722	1.071049	0.395975
C38	C	1.629489	1.070930	0.534596
C39	C	1.628825	0.948323	0.537015
C40	C	1.792320	0.510600	0.506198
C41	C	1.909097	0.510606	0.506206
C42	C	1.518366	0.510483	0.780213
C43	C	1.518400	0.510438	0.896990
C44	C	1.518396	1.234081	0.506217
C45	C	1.518349	1.116251	0.506243
C46	C	1.518268	0.510614	0.233212
C47	C	1.518438	0.510359	0.116436
C48	C	1.652861	0.374862	0.897035
C49	C	1.720106	0.307058	0.951919
C50	C	1.720131	0.307019	1.061640
C51	C	1.652903	0.374790	1.116481
C52	C	1.585658	0.442594	1.061598
C53	C	1.585642	0.442627	0.951873
C54	C	1.451193	0.578163	1.061552
C55	C	1.451171	0.578209	0.951831
C56	C	1.383964	0.645934	1.116393
C57	C	1.316723	0.713745	1.061509
C58	C	1.316701	0.713781	0.951781
C59	C	1.383926	0.646013	0.896947
H60	H	1.217890	0.646358	0.640313
H61	H	1.656828	1.101767	0.613962
H62	H	1.118334	0.251648	0.250354
C63	C	1.563938	1.111122	0.311248
N64	N	1.621337	1.141300	0.247427
C65	C	1.794104	0.232433	1.122014
N66	N	1.849821	0.176255	1.167487
H67	H	1.651435	0.919166	0.618500
H68	H	0.919266	0.251676	0.250383
C69	C	1.462454	1.111152	0.698912
N70	N	1.481352	1.141089	0.782730
H71	H	1.261985	0.768912	1.106169
C72	C	1.134051	0.788917	0.781168
N73	N	1.179513	0.845163	0.836729
C74	C	1.652935	0.374744	1.237178
N75	N	1.652963	0.374714	1.328088
H76	H	1.383920	0.646041	0.807606
H77	H	1.261931	0.768984	0.907101
H78	H	0.919304	0.769531	0.762038
H79	H	1.217876	0.374822	0.372029
H80	H	1.383986	0.645893	1.205734
C81	C	0.788406	0.646372	0.640380
N82	N	0.697496	0.646369	0.640409
H83	H	1.355485	1.102324	0.569088
H84	H	0.819748	0.374843	0.372082
C85	C	1.325652	0.909366	0.562068
N86	N	1.241797	0.879619	0.543037
H87	H	1.455728	0.918699	0.669468
C88	C	1.794053	0.232513	0.891586
N89	N	1.849749	0.176364	0.846146
C90	C	1.377964	1.109818	0.363532
N91	N	1.295290	1.139013	0.339100
C92	C	1.565398	0.909057	0.311310
N93	N	1.623518	0.879381	0.247915
C94	C	1.379627	0.907113	0.362444
N95	N	1.297821	0.875981	0.337568
H96	H	1.692350	0.917676	0.482051
H97	H	1.689825	1.099922	0.475316
H98	H	1.652857	0.374897	0.807694
