data_functionalizedCrystal
_audit_creation_method	'MofGen! by Chris Wilmer'
_symmetry_space_group_name_H-M	'P1'
_symmetry_Int_Tables_number	1
_symmetry_cell_setting	triclinic
loop_
_symmetry_equiv_pos_as_xyz
  x,y,z
_cell_length_a	42.784839
_cell_length_b	42.784841
_cell_length_c	42.784893
_cell_angle_alpha	90.002418
_cell_angle_beta	59.997780
_cell_angle_gamma	119.999863
loop_
_atom_site_label
_atom_site_type_symbol
_atom_site_fract_x
_atom_site_fract_y
_atom_site_fract_z
O1	O	0.275695	-0.214412	-0.009300
O2	O	0.211692	-0.168961	0.009253
O3	O	0.275692	-0.168961	-0.054750
O4	O	0.211694	-0.214412	0.054702
O5	O	0.223708	-0.220945	-0.054749
O6	O	0.159708	-0.220945	0.009253
O7	O	0.223710	-0.266397	-0.009300
Cu8	Cu	0.186962	-0.248417	-0.000023
Cu9	Cu	0.248440	-0.186940	-0.000024
O10	O	0.159710	-0.266396	0.054703
C11	C	0.051021	-0.022778	0.028112
C12	C	0.013142	-0.041761	0.028375
C13	C	0.051018	-0.079378	0.028116
C14	C	0.013139	-0.098275	0.028379
C15	C	-0.005578	-0.079377	0.028112
C16	C	0.069652	-0.041762	0.028379
C17	C	0.152948	0.113708	0.017863
C18	C	0.173786	0.152360	0.014965
C19	C	0.155902	0.171750	0.013509
C20	C	0.178499	0.213661	0.010359
C21	C	0.117177	0.152485	0.014953
C22	C	0.096339	0.113835	0.017857
C23	C	0.114226	0.094447	0.019312
C24	C	-0.131813	-0.113936	0.017859
C25	C	-0.167567	-0.131750	0.014961
C26	C	-0.185502	-0.169024	0.013506
C27	C	-0.224264	-0.188340	0.010358
C28	C	-0.167685	-0.188485	0.014954
C29	C	-0.131938	-0.170675	0.017859
C30	C	-0.114002	-0.133396	0.019309
C31	C	0.152939	-0.113943	0.017877
C32	C	0.173778	-0.131757	0.014977
C33	C	0.155892	-0.169032	0.013523
C34	C	0.178486	-0.188349	0.010377
C35	C	0.117170	-0.188491	0.014967
C36	C	0.096334	-0.170675	0.017865
C37	C	0.114220	-0.133401	0.019323
C38	C	0.091629	0.052537	0.022456
C39	C	0.073617	0.019131	0.024964
C40	C	0.073613	-0.098693	0.024971
C41	C	0.091623	-0.114089	0.022466
C42	C	-0.044339	-0.098690	0.024964
C43	C	-0.075237	-0.114084	0.022456
O44	O	-0.327856	-0.266388	-0.009322
O45	O	-0.236954	-0.220935	0.009228
O46	O	-0.236950	-0.220939	-0.054773
O47	O	-0.327860	-0.266385	0.054680
O48	O	-0.236948	-0.168954	-0.054776
O49	O	-0.236952	-0.168950	0.009225
O50	O	-0.327854	-0.214403	-0.009325
Cu51	Cu	-0.282403	-0.186930	-0.000050
Cu52	Cu	-0.282405	-0.248408	-0.000046
O53	O	-0.327858	-0.214400	0.054676
C54	C	0.384390	-0.079141	-0.361606
C55	C	0.422270	-0.041526	-0.380503
C56	C	0.384390	-0.079141	-0.305008
C57	C	0.422270	-0.041526	-0.323990
C58	C	0.440988	-0.022543	-0.361606
C59	C	0.365758	-0.098038	-0.323991
C60	C	0.282465	-0.170819	-0.396168
C61	C	0.261627	-0.188759	-0.413983
C62	C	0.279513	-0.169420	-0.451257
C63	C	0.256917	-0.188867	-0.470572
C64	C	0.318239	-0.132140	-0.470717
C65	C	0.339076	-0.114205	-0.452905
C66	C	0.321187	-0.133546	-0.415628
C67	C	0.567227	0.113942	-0.453282
C68	C	0.602981	0.152594	-0.471222
C69	C	0.620916	0.171985	-0.451883
C70	C	0.659678	0.213894	-0.471328
C71	C	0.603097	0.152719	-0.414603
C72	C	0.567349	0.114068	-0.396667
C73	C	0.549414	0.094682	-0.416011
C74	C	0.282465	-0.170819	-0.168522
C75	C	0.261624	-0.188757	-0.129868
C76	C	0.279510	-0.169418	-0.110479
C77	C	0.256914	-0.188865	-0.068568
C78	C	0.318233	-0.132140	-0.129742
C79	C	0.339070	-0.114203	-0.168394
C80	C	0.321184	-0.133548	-0.187782
C81	C	0.343783	-0.114094	-0.396315
C82	C	0.361794	-0.098590	-0.380920
C83	C	0.361794	-0.098590	-0.263099
C84	C	0.343783	-0.114094	-0.229693
C85	C	0.479750	0.019366	-0.381054
C86	C	0.510649	0.052771	-0.396557
C87	C	0.440758	-0.356212	-0.028193
C88	C	0.422041	-0.393827	-0.028459
C89	C	0.384158	-0.356213	-0.028190
C90	C	0.365526	-0.393828	-0.028456
C91	C	0.384160	-0.412810	-0.028193
C92	C	0.422038	-0.337315	-0.028456
C93	C	0.567000	-0.264532	-0.017949
C94	C	0.602755	-0.246591	-0.015053
C95	C	0.620692	-0.265931	-0.013601
C96	C	0.659455	-0.246483	-0.010453
C97	C	0.602873	-0.303210	-0.015048
C98	C	0.567125	-0.321146	-0.017949
C99	C	0.549188	-0.301805	-0.019399
C100	C	0.339356	-0.549295	-0.017951
C101	C	0.318645	-0.587947	-0.015055
C102	C	0.279915	-0.607338	-0.013597
C103	C	0.257452	-0.649247	-0.010452
C104	C	0.261899	-0.588073	-0.015042
C105	C	0.282613	-0.549422	-0.017945
C106	C	0.321343	-0.530035	-0.019397
C107	C	0.339344	-0.264537	-0.017936
C108	C	0.318628	-0.246599	-0.015032
C109	C	0.279898	-0.265939	-0.013577
C110	C	0.257433	-0.246493	-0.010426
C111	C	0.261884	-0.303217	-0.015022
C112	C	0.282601	-0.321153	-0.017924
C113	C	0.321334	-0.301808	-0.019385
C114	C	0.510421	-0.321258	-0.022542
C115	C	0.479522	-0.336762	-0.025048
C116	C	0.361696	-0.336765	-0.025041
C117	C	0.343793	-0.321261	-0.022532
C118	C	0.361701	-0.454719	-0.025047
C119	C	0.343799	-0.488125	-0.022541
O120	O	0.223728	0.336934	-0.009323
O121	O	0.159726	0.227482	0.009227
O122	O	0.223729	0.291478	-0.054775
O123	O	0.159725	0.272938	0.054678
O124	O	0.275711	0.291477	-0.054771
O125	O	0.211707	0.227481	0.009230
O126	O	0.275710	0.336932	-0.009320
Cu127	Cu	0.248455	0.282206	-0.000045
Cu128	Cu	0.186981	0.282208	-0.000049
O129	O	0.211707	0.272936	0.054681
O130	O	0.763271	0.337164	-0.496871
O131	O	0.672367	0.227713	-0.451422
O132	O	0.672365	0.291711	-0.451418
O133	O	0.763273	0.273165	-0.496876
O134	O	0.672366	0.291712	-0.503402
O135	O	0.672368	0.227714	-0.503407
O136	O	0.763272	0.337165	-0.548856
Cu137	Cu	0.717820	0.282440	-0.530878
Cu138	Cu	0.717819	0.282438	-0.469400
O139	O	0.763275	0.273167	-0.548860
O140	O	0.211690	-0.214417	-0.548617
O141	O	0.275691	-0.168962	-0.503167
O142	O	0.211689	-0.168964	-0.503163
O143	O	0.275692	-0.214415	-0.548621
O144	O	0.159706	-0.220947	-0.451179
O145	O	0.223708	-0.220945	-0.451183
O146	O	0.159707	-0.266400	-0.496633
Cu147	Cu	0.186961	-0.248419	-0.469161
Cu148	Cu	0.248437	-0.186943	-0.530639
O149	O	0.223709	-0.266398	-0.496637
C150	C	-0.005343	-0.412572	0.361558
C151	C	0.013375	-0.393590	0.380456
C152	C	0.051255	-0.355974	0.304961
C153	C	0.069887	-0.337077	0.323944
C154	C	0.051254	-0.355974	0.361560
C155	C	0.013375	-0.393589	0.323943
C156	C	-0.131582	-0.549057	0.396116
C157	C	-0.167336	-0.587709	0.413930
C158	C	-0.185271	-0.607098	0.451205
C159	C	-0.224034	-0.649009	0.470519
C160	C	-0.167452	-0.587833	0.470666
C161	C	-0.131705	-0.549184	0.452854
C162	C	-0.113770	-0.529796	0.415578
C163	C	0.096061	-0.321414	0.453239
C164	C	0.116773	-0.303600	0.471179
C165	C	0.155502	-0.266327	0.451842
C166	C	0.177965	-0.247011	0.471288
C167	C	0.173517	-0.246866	0.414562
C168	C	0.152802	-0.264677	0.396625
C169	C	0.114073	-0.301955	0.415968
C170	C	0.096064	-0.321412	0.168474
C171	C	0.116779	-0.303599	0.129820
C172	C	0.155508	-0.266324	0.110432
C173	C	0.177972	-0.247009	0.068521
C174	C	0.173522	-0.246865	0.129696
C175	C	0.152807	-0.264680	0.168348
C176	C	0.114075	-0.301953	0.187735
C177	C	-0.075004	-0.487887	0.396265
C178	C	-0.044106	-0.454481	0.380871
C179	C	0.073715	-0.336660	0.263052
C180	C	0.091618	-0.321265	0.229646
C181	C	0.073714	-0.336661	0.381009
C182	C	0.091616	-0.321267	0.396513
C183	C	0.051046	-0.022794	-0.361634
C184	C	0.069679	-0.041778	-0.380530
C185	C	-0.005555	-0.079390	-0.305034
C186	C	0.013163	-0.098288	-0.324016
C187	C	0.051045	-0.079393	-0.361631
C188	C	0.013164	-0.041775	-0.324018
C189	C	0.095858	0.113693	-0.396200
C190	C	0.116571	0.152344	-0.414015
C191	C	0.155302	0.171732	-0.451290
C192	C	0.177767	0.213642	-0.470607
C193	C	0.173317	0.152465	-0.470750
C194	C	0.152600	0.113815	-0.452936
C195	C	0.113869	0.094429	-0.415659
C196	C	0.152973	-0.113959	-0.453306
C197	C	0.173810	-0.131775	-0.471245
C198	C	0.155926	-0.169048	-0.451906
C199	C	0.178519	-0.188366	-0.471350
C200	C	0.117198	-0.188507	-0.414626
C201	C	0.096358	-0.170694	-0.396690
C202	C	0.114251	-0.133416	-0.416035
C203	C	-0.131801	-0.113944	-0.168548
C204	C	-0.167554	-0.131755	-0.129895
C205	C	-0.185491	-0.169029	-0.110504
C206	C	-0.224255	-0.188343	-0.068593
C207	C	-0.167671	-0.188490	-0.129767
C208	C	-0.131918	-0.170677	-0.168418
C209	C	-0.113988	-0.133404	-0.187808
C210	C	0.091411	0.052521	-0.396344
C211	C	0.073508	0.019115	-0.380949
C212	C	-0.044320	-0.098701	-0.263125
C213	C	-0.075220	-0.114094	-0.229719
C214	C	0.073641	-0.098707	-0.381079
C215	C	0.091652	-0.114103	-0.396582
C216	C	-0.615853	-0.356193	0.361535
C217	C	-0.634487	-0.393808	0.380433
C218	C	-0.559253	-0.356195	0.304938
C219	C	-0.577972	-0.393810	0.323921
C220	C	-0.615854	-0.412792	0.361537
C221	C	-0.577972	-0.337297	0.323920
C222	C	-0.660661	-0.264512	0.396093
C223	C	-0.681373	-0.246571	0.413906
C224	C	-0.720104	-0.265909	0.451181
C225	C	-0.742568	-0.246461	0.470495
C226	C	-0.738120	-0.303189	0.470643
C227	C	-0.717405	-0.321125	0.452831
C228	C	-0.678674	-0.301785	0.415554
C229	C	-0.717784	-0.549275	0.453218
C230	C	-0.738622	-0.587926	0.471159
C231	C	-0.720740	-0.607319	0.451822
C232	C	-0.743333	-0.649227	0.471268
C233	C	-0.682012	-0.588055	0.414542
C234	C	-0.661170	-0.549403	0.396604
C235	C	-0.679063	-0.530016	0.415946
C236	C	-0.433006	-0.264522	0.168449
C237	C	-0.397253	-0.246585	0.129796
C238	C	-0.379317	-0.265926	0.110407
C239	C	-0.340553	-0.246480	0.068496
C240	C	-0.397138	-0.303204	0.129672
C241	C	-0.432891	-0.321139	0.168324
C242	C	-0.450820	-0.301793	0.187711
C243	C	-0.656216	-0.321238	0.396242
C244	C	-0.638314	-0.336743	0.380848
C245	C	-0.520488	-0.336748	0.263028
C246	C	-0.489588	-0.321245	0.229622
C247	C	-0.638451	-0.454700	0.380987
C248	C	-0.656463	-0.488106	0.396492
C249	C	0.440756	0.310302	-0.361620
C250	C	0.422038	0.310564	-0.380518
C251	C	0.384160	0.310312	-0.305026
C252	C	0.365528	0.310574	-0.324010
C253	C	0.384159	0.310303	-0.361624
C254	C	0.422038	0.310573	-0.324006
C255	C	0.566989	0.300046	-0.396172
C256	C	0.602741	0.297145	-0.413984
C257	C	0.620675	0.295684	-0.451257
C258	C	0.659436	0.292531	-0.470569
C259	C	0.602857	0.297127	-0.470719
C260	C	0.567111	0.300033	-0.452909
C261	C	0.549177	0.301493	-0.415634
C262	C	0.339351	0.300042	-0.453303
C263	C	0.318640	0.297142	-0.471244
C264	C	0.279912	0.295690	-0.451908
C265	C	0.257449	0.292541	-0.471354
C266	C	0.261899	0.297143	-0.414629
C267	C	0.282613	0.300049	-0.396692
C268	C	0.321341	0.301496	-0.416033
C269	C	0.339354	0.300088	-0.168540
C270	C	0.318640	0.297192	-0.129888
C271	C	0.279912	0.295742	-0.110501
C272	C	0.257450	0.292601	-0.068591
C273	C	0.261898	0.297184	-0.129766
C274	C	0.282612	0.300078	-0.168417
C275	C	0.321344	0.301533	-0.187802
C276	C	0.510413	0.304640	-0.396323
C277	C	0.479516	0.307151	-0.380931
C278	C	0.361701	0.307173	-0.263117
C279	C	0.343799	0.304671	-0.229712
C280	C	0.361700	0.307154	-0.381073
C281	C	0.343798	0.304644	-0.396578
O282	O	0.275503	0.336913	-0.548651
O283	O	0.211494	0.227461	-0.503201
O284	O	0.275490	0.291455	-0.503192
O285	O	0.211507	0.272919	-0.548659
O286	O	0.223502	0.291457	-0.451211
O287	O	0.159506	0.227463	-0.451219
O288	O	0.223515	0.336915	-0.496669
Cu289	Cu	0.186764	0.282189	-0.469197
Cu290	Cu	0.248246	0.282187	-0.530672
O291	O	0.159519	0.272921	-0.496677
C292	C	0.051032	0.254111	0.361530
C293	C	0.013154	0.253851	0.380425
C294	C	0.051031	0.254102	0.304932
C295	C	0.013153	0.253842	0.323913
C296	C	-0.005564	0.254113	0.361527
C297	C	0.069663	0.253840	0.323916
C298	C	0.152954	0.264360	0.396096
C299	C	0.173791	0.267260	0.413911
C300	C	0.155906	0.268721	0.451185
C301	C	0.178502	0.271871	0.470501
C302	C	0.117182	0.267279	0.470643
C303	C	0.096345	0.264374	0.452830
C304	C	0.114233	0.262915	0.415555
C305	C	-0.131796	0.264379	0.453195
C306	C	-0.167548	0.267281	0.471133
C307	C	-0.185483	0.268734	0.451793
C308	C	-0.224243	0.271886	0.471236
C309	C	-0.167664	0.267282	0.414515
C310	C	-0.131919	0.264374	0.396581
C311	C	-0.113984	0.262925	0.415925
C312	C	0.152952	0.264325	0.168451
C313	C	0.173792	0.267221	0.129798
C314	C	0.155907	0.268673	0.110407
C315	C	0.178502	0.271814	0.068498
C316	C	0.117186	0.267232	0.129669
C317	C	0.096350	0.264339	0.168320
C318	C	0.114234	0.262881	0.187709
C319	C	0.091638	0.259769	0.396240
C320	C	0.073627	0.257260	0.380845
C321	C	0.073626	0.257242	0.263024
C322	C	0.091636	0.259743	0.229619
C323	C	-0.044324	0.257264	0.380973
C324	C	-0.075221	0.259775	0.396474
H325	H	-0.117435	-0.186523	0.019040
H326	H	0.230346	-0.318966	-0.013835
N327	N	0.054579	0.262771	0.189097
H328	H	0.044092	0.260716	0.216524
H329	H	0.060743	0.286816	0.176078
N330	N	0.622199	0.295554	-0.510919
H331	H	0.647548	0.293494	-0.519250
H332	H	0.598669	0.272518	-0.511538
H333	H	-0.181841	-0.603391	0.398082
N334	N	0.110025	-0.021577	0.028945
H335	H	0.119037	-0.039323	0.029075
H336	H	0.135039	0.002066	0.005467
H337	H	0.102624	0.268416	0.113879
H338	H	-0.732353	-0.533492	0.468971
N339	N	0.338066	0.295634	-0.109109
H340	H	0.365744	0.296994	-0.127255
H341	H	0.345596	0.317973	-0.099314
H342	H	0.230097	-0.219111	-0.398135
N343	N	0.263175	-0.191683	-0.189433
H344	H	0.282253	-0.174666	-0.216842
H345	H	0.262063	-0.215831	-0.188939
N346	N	0.054589	-0.191683	-0.356486
H347	H	0.060727	-0.198534	-0.338578
H348	H	0.044122	-0.174725	-0.348092
H349	H	-0.117415	0.263190	0.366230
N350	N	0.172243	0.092802	0.019437
H351	H	0.149970	0.070527	0.044180
H352	H	0.179754	0.083024	-0.002917
H353	H	0.167269	0.098131	-0.468782
H354	H	-0.002524	-0.026519	0.028802
H355	H	0.267931	-0.351506	-0.019101
H356	H	0.100368	-0.306171	0.308703
H357	H	-0.116983	-0.533275	0.365765
N358	N	0.097888	0.173396	0.013381
H359	H	0.090384	0.183203	0.035716
H360	H	0.120178	0.195652	-0.011377
N361	N	-0.377792	-0.324064	0.108761
H362	H	-0.366687	-0.330910	0.121698
H363	H	-0.401310	-0.348198	0.109227
H364	H	0.204850	0.168253	-0.501099
N365	N	-0.662716	-0.608964	0.393684
H366	H	-0.681793	-0.636372	0.410702
H367	H	-0.661599	-0.608472	0.369533
H368	H	0.167470	-0.248829	0.366274
N369	N	0.215543	-0.110769	0.013416
H370	H	0.223711	-0.084454	0.014779
H371	H	0.210531	-0.125577	0.035754
H372	H	0.335043	-0.409068	-0.028878
N373	N	0.054571	-0.191662	0.019422
H374	H	0.046400	-0.217978	0.018063
H375	H	0.029804	-0.194155	0.044165
N376	N	0.442790	-0.414016	-0.029022
H377	H	0.451889	-0.421637	-0.052750
H378	H	0.469657	-0.396258	-0.029131
N379	N	0.337531	-0.111283	-0.510920
H380	H	0.318455	-0.128301	-0.519252
H381	H	0.338646	-0.087133	-0.511541
H382	H	0.437935	-0.026287	-0.411409
N383	N	0.442797	0.311154	-0.303822
H384	H	0.425184	0.311291	-0.277066
H385	H	0.442969	0.287680	-0.302444
N386	N	0.172228	-0.073740	0.019446
H387	H	0.173342	-0.073087	0.042482
H388	H	0.203105	-0.055811	-0.004614
H389	H	0.102606	-0.218843	0.013783
H390	H	0.370607	-0.083853	-0.468752
N391	N	0.621956	0.295581	-0.392995
H392	H	0.654091	0.317915	-0.407774
H393	H	0.605139	0.296932	-0.366681
N394	N	-0.618886	-0.243647	0.355890
H395	H	-0.594140	-0.241176	0.355887
H396	H	-0.623952	-0.258491	0.338603
N397	N	0.110056	-0.021593	-0.421468
H398	H	0.119069	-0.039340	-0.430608
H399	H	0.103023	-0.013969	-0.438159
H400	H	0.370892	0.301275	-0.184323
N401	N	0.172244	0.262783	0.355895
H402	H	0.199934	0.264134	0.346274
H403	H	0.149939	0.238038	0.355926
N404	N	0.215581	-0.110786	-0.511447
H405	H	0.226068	-0.127727	-0.519874
H406	H	0.209417	-0.103934	-0.529330
N407	N	-0.619402	-0.528626	0.356400
H408	H	-0.611233	-0.546773	0.346869
H409	H	-0.624412	-0.518830	0.339072
H410	H	-0.182060	-0.603623	0.501016
H411	H	0.335269	-0.128941	-0.308748
H412	H	0.167543	-0.083608	-0.469060
N413	N	0.547894	0.301592	-0.473898
H414	H	0.564678	0.300226	-0.500212
H415	H	0.515759	0.279256	-0.459088
H416	H	0.205320	0.268435	0.398066
N417	N	0.215551	0.173138	0.013405
H418	H	0.223720	0.154990	0.014766
H419	H	0.240317	0.195406	-0.011340
N420	N	0.547892	0.093030	-0.474147
H421	H	0.564608	0.111096	-0.500485
H422	H	0.550366	0.070757	-0.476588
N423	N	0.443025	-0.021339	-0.303805
H424	H	0.469912	0.005419	-0.321551
H425	H	0.420918	-0.019969	-0.280160
N426	N	0.442783	-0.296379	-0.029013
H427	H	0.469667	-0.287236	-0.029136
H428	H	0.451853	-0.279688	-0.052739
N429	N	0.338074	-0.608723	-0.013498
H430	H	0.365751	-0.590576	-0.014858
H431	H	0.315826	-0.630993	0.011246
N432	N	0.381120	0.301605	-0.474161
H433	H	0.389389	0.300246	-0.500497
H434	H	0.405841	0.326349	-0.476606
N435	N	0.220131	-0.608982	-0.013477
H436	H	0.209742	-0.636390	-0.011421
H437	H	0.196473	-0.608490	0.009558
H438	H	0.064808	0.098152	0.019035
H439	H	0.617258	-0.216240	-0.013873
N440	N	-0.112469	-0.528412	0.473832
H441	H	-0.129247	-0.546561	0.500145
H442	H	-0.080337	-0.518628	0.459009
H443	H	-0.002525	-0.129181	0.028805
N444	N	-0.187005	0.268849	0.393653
H445	H	-0.170295	0.267488	0.367319
H446	H	-0.219146	0.246515	0.408516
H447	H	0.552621	-0.351498	-0.019128
N448	N	0.219859	-0.228962	-0.109091
H449	H	0.211692	-0.238493	-0.127239
H450	H	0.224871	-0.246287	-0.099294
H451	H	0.333296	-0.216247	-0.013853
N452	N	-0.112469	-0.073732	0.019425
H453	H	-0.129181	-0.064107	0.018068
H454	H	-0.114937	-0.073754	0.044168
H455	H	0.205048	-0.216515	0.398819
N456	N	0.263188	0.301614	-0.356487
H457	H	0.285408	0.326357	-0.356438
H458	H	0.235507	0.300238	-0.346980
H459	H	0.335046	0.310999	-0.308768
N460	N	-0.007373	-0.413777	0.421393
H461	H	-0.016473	-0.399150	0.438115
H462	H	-0.034240	-0.440536	0.430500
N463	N	-0.452105	-0.361343	0.189100
H464	H	-0.449634	-0.361393	0.211371
H465	H	-0.484231	-0.378677	0.198871
H466	H	0.064816	0.263199	0.468675
H467	H	0.552391	0.301235	-0.365822
N468	N	-0.007371	-0.413774	0.303752
H469	H	-0.034255	-0.440536	0.321492
H470	H	-0.016442	-0.399117	0.296133
H471	H	-0.002509	-0.129196	-0.308775
N472	N	0.054296	-0.361616	0.189381
H473	H	0.043906	-0.369948	0.216790
H474	H	0.030636	-0.362242	0.188890
N475	N	0.172235	-0.243694	0.189126
H476	H	0.199912	-0.217377	0.170979
H477	H	0.149986	-0.241199	0.211397
N478	N	-0.186780	-0.110761	0.013395
H479	H	-0.169992	-0.084444	0.014754
H480	H	-0.184303	-0.108268	-0.011351
H481	H	0.617704	0.168507	-0.398859
H482	H	0.333308	0.295959	-0.501595
H483	H	-0.002500	-0.026531	-0.308780
H484	H	0.267896	-0.186572	-0.365817
H485	H	-0.664969	-0.409045	0.411340
N486	N	0.220133	0.295584	-0.393773
H487	H	0.209743	0.293524	-0.410791
H488	H	0.196475	0.272552	-0.369620
N489	N	-0.112460	-0.073741	-0.189457
H490	H	-0.080321	-0.056436	-0.199261
H491	H	-0.114960	-0.073772	-0.211715
H492	H	0.064321	0.097912	-0.365848
H493	H	-0.182293	-0.218837	0.013775
N494	N	-0.007597	0.253280	0.303725
H495	H	0.010021	0.253153	0.276965
H496	H	-0.038946	0.229555	0.318384
H497	H	0.617485	0.168277	-0.501573
H498	H	-0.117412	-0.186525	-0.184100
H499	H	0.102110	-0.319446	0.114137
H500	H	0.102633	-0.218858	-0.398880
N501	N	0.054291	-0.361618	0.474099
H502	H	0.046022	-0.371242	0.500435
H503	H	0.029571	-0.361594	0.476542
H504	H	0.102623	0.268466	0.500992
H505	H	0.267943	-0.533739	-0.019121
N506	N	-0.186772	-0.110764	-0.109124
H507	H	-0.218906	-0.125544	-0.099329
H508	H	-0.184270	-0.108237	-0.086871
N509	N	0.097143	0.173123	-0.393029
H510	H	0.069465	0.154977	-0.366713
H511	H	0.119391	0.195393	-0.390534
H512	H	0.267941	0.301250	-0.184099
N513	N	0.097343	-0.324586	0.511385
H514	H	0.069666	-0.350902	0.520915
H515	H	0.119591	-0.327082	0.511408
H516	H	0.370598	-0.083850	-0.184076
H517	H	0.552845	0.098385	-0.366316
H518	H	-0.182279	-0.218843	-0.113977
H519	H	-0.117197	0.263199	0.468949
N520	N	-0.557221	-0.413999	0.303736
H521	H	-0.548124	-0.421618	0.318366
H522	H	-0.579321	-0.437631	0.302349
H523	H	-0.770155	-0.603608	0.501511
H524	H	-0.666703	-0.216219	0.398058
H525	H	-0.562326	-0.306401	0.308670
N526	N	0.337530	-0.111278	-0.108833
H527	H	0.318457	-0.128297	-0.081426
H528	H	0.368420	-0.104436	-0.121804
N529	N	0.215296	-0.206662	0.108787
H530	H	0.225687	-0.198328	0.081378
H531	H	0.209175	-0.188738	0.121754
H532	H	0.230362	0.296001	-0.113978
H533	H	-0.182052	0.268464	0.501484
H534	H	-0.382753	-0.216236	0.114110
N535	N	-0.452346	-0.243659	0.189360
H536	H	-0.435635	-0.217324	0.171292
H537	H	-0.484486	-0.258520	0.199164
N538	N	0.381119	-0.243674	-0.019510
H539	H	0.389386	-0.217339	-0.018151
H540	H	0.376062	-0.258536	0.002825
N541	N	0.381129	-0.528384	-0.019522
H542	H	0.389400	-0.546451	-0.018169
H543	H	0.405846	-0.506109	-0.044266
N544	N	0.547660	-0.243670	-0.019520
H545	H	0.564374	-0.217332	-0.018167
H546	H	0.550130	-0.241230	-0.044265
H547	H	0.617482	-0.318952	-0.013867
N548	N	0.442789	0.311126	-0.421457
H549	H	0.469672	0.311248	-0.430600
H550	H	0.420677	0.287653	-0.422994
H551	H	-0.769653	-0.318930	0.500992
N552	N	-0.007603	0.253288	0.421364
H553	H	0.010013	0.253165	0.430509
H554	H	-0.007777	0.276762	0.422900
N555	N	-0.736831	-0.361329	0.473816
H556	H	-0.737954	-0.361934	0.497970
H557	H	-0.767716	-0.379213	0.480638
N558	N	0.110041	0.253281	0.303726
H559	H	0.119064	0.253163	0.321467
H560	H	0.103007	0.229553	0.296107
H561	H	0.205322	0.268398	0.114116
N562	N	0.172241	0.262755	0.189364
H563	H	0.199934	0.264109	0.171297
H564	H	0.179717	0.285093	0.199165
