data_functionalizedCrystal
_audit_creation_method	'MofGen! by Chris Wilmer'
_symmetry_space_group_name_H-M	'P1'
_symmetry_Int_Tables_number	1
_symmetry_cell_setting	triclinic
loop_
_symmetry_equiv_pos_as_xyz
  x,y,z
_cell_length_a	21.295419
_cell_length_b	15.297327
_cell_length_c	15.298259
_cell_angle_alpha	91.656652
_cell_angle_beta	99.661315
_cell_angle_gamma	80.278484
loop_
_atom_site_label
_atom_site_type_symbol
_atom_site_fract_x
_atom_site_fract_y
_atom_site_fract_z
Zn1	Zn	0.863564	0.262660	-0.555537
Zn2	Zn	0.857355	0.434510	-0.434398
Zn3	Zn	0.772905	0.288081	-0.409087
Zn4	Zn	0.737523	0.409148	-0.580825
O5	O	0.807837	0.348600	-0.494962
O6	O	0.950832	0.285431	-0.539478
O7	O	0.858361	0.436339	-0.308470
O8	O	0.802338	0.162122	-0.407338
O9	O	0.946270	0.411689	-0.450477
O10	O	0.868945	0.143445	-0.514935
O11	O	0.796317	0.328758	-0.289875
O12	O	0.680121	0.304165	-0.431859
O13	O	0.742033	0.368463	-0.700041
O14	O	0.654125	0.393113	-0.558034
O15	O	0.834636	0.260839	-0.681462
O16	O	0.824052	0.553733	-0.474998
O17	O	0.736012	0.535100	-0.582577
C18	C	0.644282	0.348646	-0.494945
C19	C	0.574307	0.348683	-0.494962
C20	C	0.775534	0.576199	-0.534297
C21	C	0.761769	0.673561	-0.551155
C22	C	0.785080	0.308986	-0.723421
C23	C	0.775383	0.292105	-0.820777
C24	C	0.543817	0.283017	-0.541407
C25	C	0.478077	0.282993	-0.541406
C26	C	0.442827	0.348649	-0.494972
C27	C	0.473326	0.414321	-0.448517
C28	C	0.539066	0.414338	-0.448512
N29	N	0.329383	0.426478	-0.501390
N30	N	0.266933	0.426459	-0.501399
C31	C	0.244757	0.348601	-0.494984
N32	N	0.287389	0.270758	-0.488575
N33	N	0.349845	0.270778	-0.488570
C34	C	0.371543	0.348638	-0.494972
C35	C	0.142985	0.282903	-0.541430
C36	C	0.077245	0.282879	-0.541423
C37	C	0.072494	0.414213	-0.448540
C38	C	0.138234	0.414231	-0.448541
C39	C	0.173475	0.348576	-0.494991
C40	C	0.972030	0.348554	-0.494980
C41	C	1.042000	0.348534	-0.494988
C42	C	0.840281	0.120109	-0.455492
C43	C	0.854107	0.022740	-0.438672
C44	C	0.906444	0.986665	-0.374780
C45	C	0.919377	0.895189	-0.358938
C46	C	0.879977	0.839777	-0.406991
C47	C	0.827641	0.875851	-0.470889
C48	C	0.814704	0.967337	-0.486728
C49	C	0.788236	0.820450	-0.518938
C50	C	0.735900	0.856524	-0.582837
C51	C	0.722965	0.948001	-0.598673
C52	C	0.762366	1.003412	-0.550620
C53	C	0.801173	0.728964	-0.503099
C54	C	0.709432	0.709636	-0.615047
C55	C	0.696499	0.801112	-0.630890
C56	C	0.877262	0.468576	-1.133928
C57	C	0.886369	0.484442	-1.042459
C58	C	0.858624	0.436359	-0.987034
C59	C	0.821769	0.372408	-1.023087
C60	C	0.812657	0.356545	-1.114567
C61	C	0.794018	0.324328	-0.967672
C62	C	0.757163	0.260376	-1.003726
C63	C	0.748053	0.244516	-1.095197
C64	C	0.775799	0.292599	-1.150621
C65	C	0.803131	0.340191	-0.876193
C66	C	0.738525	0.228159	-0.856832
C67	C	0.729418	0.212293	-0.948301
C68	C	0.830550	0.387996	-0.267381
C69	C	0.840404	0.404630	-0.169983
H70	H	0.453248	0.229516	-0.579225
H71	H	0.444622	0.467778	-0.410710
O72	O	0.571958	0.485167	-0.398418
H73	H	0.536405	0.530821	-0.366129
O74	O	0.907180	0.520431	-1.193711
H75	H	0.888361	0.592230	-1.188036
H76	H	0.171681	0.229439	-0.579246
H77	H	0.751840	1.077900	-0.563518
H78	H	0.052422	0.229401	-0.579242
H79	H	0.866040	0.449282	-0.912556
H80	H	0.043794	0.467671	-0.410733
O81	O	0.171126	0.485059	-0.398451
H82	H	0.135571	0.530714	-0.366165
H83	H	0.843785	0.699601	-0.451073
O84	O	0.842890	0.409151	-0.837314
H85	H	0.820587	0.474862	-0.866753
O86	O	0.893930	0.741115	-0.389894
H87	H	0.851630	0.720155	-0.367962
O88	O	0.708298	0.175548	-1.134087
H89	H	0.738651	0.123751	-1.168073
H90	H	0.572506	0.229556	-0.579229
H91	H	0.916369	0.536520	-1.013112
O92	O	0.975825	0.856277	-0.290033
H93	H	1.001055	0.910173	-0.259287
O94	O	0.708602	0.176290	-0.797057
H95	H	0.727413	0.104490	-0.802746
O96	O	0.689678	0.143307	-0.987187
H97	H	0.688007	0.140357	-1.060105
O98	O	0.666516	0.986916	-0.667586
H99	H	0.641294	0.933019	-0.698345
O100	O	0.666922	0.649888	-0.666875
H101	H	0.668343	0.655486	-0.738667
O102	O	0.948941	1.046437	-0.322982
H103	H	0.919335	1.095920	-0.285620
O104	O	0.640045	0.840033	-0.699792
H105	H	0.657864	0.873930	-0.751591
H106	H	0.768388	0.279682	-1.225104
