data_functionalizedCrystal
_audit_creation_method	'MofGen! by Chris Wilmer'
_symmetry_space_group_name_H-M	'P1'
_symmetry_Int_Tables_number	1
_symmetry_cell_setting	triclinic
loop_
_symmetry_equiv_pos_as_xyz
  x,y,z
_cell_length_a	29.839134
_cell_length_b	16.994747
_cell_length_c	29.839125
_cell_angle_alpha	89.991363
_cell_angle_beta	90.021980
_cell_angle_gamma	90.005924
loop_
_atom_site_label
_atom_site_type_symbol
_atom_site_fract_x
_atom_site_fract_y
_atom_site_fract_z
Zn1	Zn	0.686814	-0.314247	0.254207
Zn2	Zn	0.686786	-0.446127	0.179112
Zn3	Zn	0.611697	-0.314229	0.179077
Zn4	Zn	0.611685	-0.446101	0.254200
O5	O	0.649246	-0.380176	0.216649
O6	O	0.749678	-0.331759	0.244263
O7	O	0.676819	-0.428635	0.116240
O8	O	0.621679	-0.203850	0.189031
O9	O	0.749657	-0.428651	0.189091
O10	O	0.676867	-0.203863	0.244230
O11	O	0.621651	-0.331730	0.116214
O12	O	0.548828	-0.331704	0.189025
O13	O	0.621657	-0.428606	0.317068
O14	O	0.548819	-0.428589	0.244217
O15	O	0.676855	-0.331734	0.317074
O16	O	0.676807	-0.556505	0.189084
O17	O	0.621630	-0.556486	0.244251
C18	C	0.532523	-0.380143	0.216617
C19	C	0.482589	-0.380147	0.216613
C20	C	0.649220	-0.585116	0.216669
C21	C	0.649223	-0.674438	0.216668
Zn22	Zn	0.611710	-0.945316	0.179064
Zn23	Zn	0.686834	-0.945312	0.254188
Zn24	Zn	0.611700	-0.813493	0.254193
Zn25	Zn	0.686795	-0.813382	0.179097
O26	O	0.649260	-0.879376	0.216635
O27	O	0.621696	-1.055697	0.189014
O28	O	0.676880	-0.927870	0.317055
O29	O	0.548834	-0.831028	0.244215
O30	O	0.676890	-1.055693	0.244206
O31	O	0.548842	-0.927877	0.189019
O32	O	0.621679	-0.831024	0.317059
O33	O	0.621641	-0.703097	0.244247
O34	O	0.676822	-0.830839	0.116226
O35	O	0.676812	-0.703016	0.189075
O36	O	0.621658	-0.927770	0.116202
O37	O	0.749696	-0.927763	0.244238
O38	O	0.749667	-0.830835	0.189070
C39	C	0.172950	-0.430699	0.245353
C40	C	-0.014723	-0.430721	0.245373
O41	O	-0.038984	-0.473665	0.269789
N42	N	-0.038196	-0.380205	0.216683
C43	C	-0.014749	-0.329676	0.187988
O44	O	-0.039020	-0.286704	0.163589
C45	C	0.172924	-0.329650	0.187971
C46	C	0.196395	-0.380176	0.216659
C47	C	0.196421	-0.481219	0.274039
C48	C	0.243337	-0.481216	0.274032
C49	C	0.266781	-0.430693	0.245339
C50	C	0.243310	-0.380172	0.216652
C51	C	0.196371	-0.279118	0.159279
C52	C	0.243292	-0.279115	0.159278
C53	C	0.266762	-0.329640	0.187966
C54	C	0.313670	-0.329646	0.187952
N55	N	0.337143	-0.380162	0.216642
C56	C	0.313699	-0.430686	0.245335
C57	C	-0.113279	-0.329694	0.187999
C58	C	-0.160197	-0.329701	0.188002
C59	C	-0.160168	-0.430746	0.245388
C60	C	-0.113250	-0.430742	0.245381
C61	C	-0.089806	-0.380210	0.216688
C62	C	0.412225	-0.430676	0.245318
C63	C	0.459144	-0.430671	0.245307
C64	C	0.459111	-0.329624	0.187924
C65	C	0.412196	-0.329632	0.187933
C66	C	0.388754	-0.380160	0.216633
O67	O	0.337960	-0.286719	0.163552
O68	O	0.337979	-0.473639	0.269737
C69	C	0.126035	-0.430702	0.245360
C70	C	0.102564	-0.380182	0.216673
C71	C	0.126008	-0.329658	0.187980
C72	C	0.055646	-0.380189	0.216677
C73	C	0.032201	-0.430712	0.245371
C74	C	0.055675	-0.481228	0.274060
C75	C	0.102590	-0.481225	0.274053
C76	C	0.102535	-0.279142	0.159290
C77	C	0.055619	-0.279150	0.159299
C78	C	0.032175	-0.329673	0.187992
C79	C	0.766424	-0.380210	0.216682
C80	C	0.816358	-0.380225	0.216696
C81	C	0.649258	-0.380169	0.333827
C82	C	0.649263	-0.380166	0.383762
C83	C	0.649274	-0.174436	0.216626
C84	C	0.649288	-0.085114	0.216617
C85	C	0.649259	-0.380126	0.099927
C86	C	0.649341	-0.379907	0.049992
C87	C	0.678035	-0.329592	0.693411
C88	C	0.678057	-0.329525	0.881084
O89	O	0.702486	-0.286600	0.905354
N90	N	0.649323	-0.379955	0.904547
C91	C	0.620579	-0.430401	0.881089
O92	O	0.596136	-0.473287	0.905352
C93	C	0.620554	-0.430464	0.693417
C94	C	0.649294	-0.380037	0.669956
C95	C	0.706771	-0.279168	0.669951
C96	C	0.706767	-0.279189	0.623035
C97	C	0.678026	-0.329633	0.599580
C98	C	0.649290	-0.380057	0.623041
C99	C	0.591809	-0.480906	0.669959
C100	C	0.591804	-0.480916	0.623038
C101	C	0.620544	-0.430488	0.599578
C102	C	0.620545	-0.430521	0.552670
N103	N	0.649279	-0.380092	0.529207
C104	C	0.678020	-0.329648	0.552662
C105	C	0.620594	-0.430366	0.979620
C106	C	0.620601	-0.430351	1.026537
C107	C	0.678078	-0.329474	1.026530
C108	C	0.678074	-0.329493	0.979611
C109	C	0.649328	-0.379936	0.956157
C110	C	0.678009	-0.329695	0.454136
C111	C	0.678004	-0.329722	0.407217
C112	C	0.620525	-0.430596	0.407229
C113	C	0.620531	-0.430572	0.454144
C114	C	0.649275	-0.380115	0.477597
O115	O	0.596125	-0.473418	0.528372
O116	O	0.702452	-0.286755	0.528391
C117	C	0.678039	-0.329572	0.740327
C118	C	0.649302	-0.379996	0.763787
C119	C	0.620561	-0.430440	0.740332
C120	C	0.649309	-0.379981	0.810705
C121	C	0.678049	-0.329537	0.834160
C122	C	0.706784	-0.279107	0.810697
C123	C	0.706779	-0.279128	0.763782
C124	C	0.591827	-0.480870	0.763795
C125	C	0.591834	-0.480846	0.810711
C126	C	0.620575	-0.430402	0.834166
C127	C	0.765982	-0.879289	0.216658
C128	C	0.815917	-0.879274	0.216681
C129	C	0.649237	-0.879293	0.099457
C130	C	0.649227	-0.879257	0.049523
C131	C	0.532081	-0.879465	0.216614
C132	C	0.482147	-0.879504	0.216605
C133	C	0.649251	-0.879503	0.333358
C134	C	0.649135	-0.879690	0.383292
C135	C	0.839369	-0.929780	0.245392
C136	C	0.886287	-0.929782	0.245413
C137	C	0.909753	-0.879274	0.216726
C138	C	0.886298	-0.828766	0.188012
C139	C	0.839380	-0.828769	0.187989
C140	C	0.620497	-0.929708	0.026058
C141	C	0.620479	-0.929675	-0.020861
C142	C	0.649193	-0.879194	-0.044314
C143	C	0.677923	-0.828738	-0.020846
C144	C	0.677939	-0.828768	0.026072
C145	C	0.458691	-0.829091	0.245338
C146	C	0.411772	-0.829111	0.245330
C147	C	0.388311	-0.879549	0.216589
C148	C	0.411770	-0.929964	0.187852
C149	C	0.458688	-0.929939	0.187859
C150	C	0.620547	-0.828988	0.406724
C151	C	0.620430	-0.829163	0.453643
C152	C	0.648904	-0.880035	0.477128
C153	C	0.677494	-0.930741	0.453693
C154	C	0.677608	-0.930570	0.406775
H155	H	0.478252	-0.471817	0.268669
H156	H	0.905411	-0.787644	0.164656
C157	C	0.484490	-0.773602	0.276953
H158	H	0.463796	-0.743579	0.294059
H159	H	0.502802	-0.803770	0.296529
H160	H	0.502783	-0.739208	0.259772
C161	C	0.385974	-0.773661	0.276944
H162	H	0.354670	-0.780888	0.272824
H163	H	0.393673	-0.785230	0.307127
H164	H	0.393658	-0.720651	0.270379
H165	H	0.597361	-0.787558	0.387609
H166	H	0.730169	-0.238124	0.603938
C167	C	0.336702	-0.879576	0.216590
H168	H	0.326096	-0.842332	0.237824
H169	H	0.326072	-0.865924	0.187602
H170	H	0.326099	-0.930493	0.224356
H171	H	0.477782	-0.970995	0.164462
H172	H	0.177338	-0.522362	0.297407
H173	H	0.568423	-0.521949	0.744703
H174	H	0.036578	-0.522369	0.297422
H175	H	0.597149	-0.787868	0.472717
C176	C	0.588922	-0.486045	0.479952
H177	H	0.571804	-0.516089	0.459261
H178	H	0.606101	-0.520410	0.498270
H179	H	0.569351	-0.455851	0.498239
H180	H	0.121619	-0.237999	0.135924
H181	H	0.649176	-0.879179	-0.082517
C182	C	0.588882	-0.985191	-0.046667
H183	H	0.571792	-1.015269	-0.025977
H184	H	0.569290	-0.955036	-0.064969
H185	H	0.606075	-1.019534	-0.064970
C186	C	0.813586	-0.773196	0.156414
H187	H	0.782282	-0.780425	0.160505
H188	H	0.821283	-0.720217	0.163032
H189	H	0.821277	-0.784670	0.126223
C190	C	0.588908	-0.985236	0.051848
H191	H	0.571794	-1.015266	0.031148
H192	H	0.606099	-1.019610	0.070149
H193	H	0.569331	-0.955081	0.070151
C194	C	0.709506	-0.773214	-0.046646
H195	H	0.726619	-0.743162	-0.025955
H196	H	0.729077	-0.803366	-0.064952
H197	H	0.692304	-0.738847	-0.064946
H198	H	0.701409	-0.288657	0.388117
C199	C	0.385958	-0.985446	0.156244
H200	H	0.354657	-0.978241	0.160363
H201	H	0.393633	-0.973887	0.126060
H202	H	0.393654	-1.038446	0.162819
C203	C	0.386445	-0.486232	0.276902
H204	H	0.407148	-0.516312	0.293985
H205	H	0.368161	-0.456093	0.296500
H206	H	0.368126	-0.520571	0.259705
H207	H	0.648807	-0.880165	0.515331
C208	C	0.709550	-0.773285	0.051881
H209	H	0.705451	-0.780526	0.083183
H210	H	0.739732	-0.784814	0.044185
H211	H	0.702966	-0.720282	0.044199
C212	C	0.708816	-0.986689	0.479531
H213	H	0.704654	-0.979516	0.510828
H214	H	0.702057	-1.039584	0.471770
H215	H	0.739065	-0.975467	0.471940
C216	C	0.738392	-0.223679	0.695744
H217	H	0.755505	-0.193660	0.675046
H218	H	0.721221	-0.189293	0.714038
H219	H	0.757967	-0.253859	0.714054
C220	C	0.738399	-0.223619	0.836501
H221	H	0.755517	-0.193588	0.815813
H222	H	0.721218	-0.189243	0.854793
H223	H	0.757970	-0.253799	0.854816
H224	H	0.730182	-0.238064	0.744684
C225	C	0.709062	-0.986336	0.381004
H226	H	0.726005	-1.016648	0.401714
H227	H	0.691793	-1.020437	0.362613
H228	H	0.728802	-0.956323	0.362794
H229	H	0.262442	-0.522357	0.297394
H230	H	-0.179265	-0.471884	0.268751
C231	C	-0.087436	-0.486312	0.276942
H232	H	-0.108122	-0.516397	0.294031
H233	H	-0.069139	-0.520634	0.259732
H234	H	-0.069126	-0.456183	0.296542
C235	C	0.709682	-0.274015	0.953808
H236	H	0.726796	-0.243969	0.974501
H237	H	0.729250	-0.304192	0.935514
H238	H	0.692495	-0.239641	0.935498
C239	C	-0.186010	-0.274129	0.156442
H240	H	-0.165324	-0.244035	0.139358
H241	H	-0.204324	-0.304247	0.136844
H242	H	-0.204302	-0.239804	0.173659
C243	C	0.029806	-0.223567	0.127740
H244	H	0.050493	-0.193474	0.110655
H245	H	0.011490	-0.253679	0.108142
H246	H	0.011517	-0.189241	0.144960
H247	H	-0.094196	-0.288545	0.164631
H248	H	0.177269	-0.237977	0.135916
H249	H	0.262377	-0.237960	0.135914
H250	H	0.393085	-0.288492	0.164571
H251	H	0.478208	-0.288492	0.164561
H252	H	0.121696	-0.522368	0.297415
C253	C	0.560222	-0.536324	0.836514
H254	H	0.564340	-0.529097	0.867817
H255	H	0.530039	-0.524774	0.828811
H256	H	0.566792	-0.589329	0.828837
C257	C	0.709630	-0.274199	0.479928
H258	H	0.726745	-0.244181	0.459231
H259	H	0.692458	-0.239812	0.498220
H260	H	0.729204	-0.304378	0.498240
H261	H	0.701480	-0.288401	1.045634
C262	C	0.961362	-0.879270	0.216761
H263	H	0.971965	-0.916579	0.237974
H264	H	0.971987	-0.892845	0.187770
H265	H	0.971973	-0.828380	0.224572
H266	H	0.597203	-0.471423	1.045635
H267	H	0.597186	-0.471448	0.960528
H268	H	0.568406	-0.521969	0.689053
C269	C	0.560195	-0.536424	0.597241
H270	H	0.543087	-0.566460	0.617936
H271	H	0.540620	-0.506270	0.578921
H272	H	0.577384	-0.570806	0.578958
C273	C	0.588925	-0.486106	0.381425
H274	H	0.571816	-0.516150	0.402114
H275	H	0.569352	-0.455952	0.363102
H276	H	0.606120	-0.520481	0.363142
C277	C	0.813565	-0.985309	0.276970
H278	H	0.834257	-1.015379	0.294073
H279	H	0.795271	-0.955152	0.296550
H280	H	0.795253	-1.019658	0.259771
H281	H	0.905378	-0.970911	0.268798
