data_functionalizedCrystal
_audit_creation_method	'MofGen! by Chris Wilmer'
_symmetry_space_group_name_H-M	'P1'
_symmetry_Int_Tables_number	1
_symmetry_cell_setting	triclinic
loop_
_symmetry_equiv_pos_as_xyz
  x,y,z
_cell_length_a	10.540514
_cell_length_b	19.288864
_cell_length_c	18.366186
_cell_angle_alpha	90.022894
_cell_angle_beta	89.996963
_cell_angle_gamma	96.174296
loop_
_atom_site_label
_atom_site_type_symbol
_atom_site_fract_x
_atom_site_fract_y
_atom_site_fract_z
O1	O	0.158347	-0.922402	-0.060778
O2	O	0.179708	-0.720282	-0.060728
O3	O	-0.015784	-0.825962	-0.060755
O4	O	0.353839	-0.816722	-0.060751
O5	O	-0.015794	-0.825944	0.060344
O6	O	0.179698	-0.720264	0.060371
O7	O	0.158337	-0.922383	0.060321
Zn8	Zn	0.169016	-0.821321	0.079573
Zn9	Zn	0.169029	-0.821345	-0.079980
O10	O	0.353829	-0.816703	0.060348
C11	C	0.179015	-0.694392	-0.000172
C12	C	0.176952	-0.617275	-0.000153
N13	N	0.169007	-0.821310	0.188464
C14	C	-0.063077	-0.825264	-0.000207
C15	C	-0.203981	-0.823202	-0.000212
C16	C	-0.276371	-0.898783	-0.000229
C17	C	-0.422937	-0.896663	0.000051
C18	C	-0.395406	-0.782087	0.068823
C19	C	-0.248926	-0.784742	0.068875
C20	C	-0.248491	-0.783645	-0.068842
C21	C	-0.395454	-0.782915	-0.069744
C22	C	0.401122	-0.817402	-0.000201
C23	C	0.542026	-0.819464	-0.000201
C24	C	0.159029	-0.948273	-0.000237
C25	C	0.161093	-1.025391	-0.000261
C26	C	0.291658	-0.573338	-0.000163
C27	C	0.289720	-0.500878	-0.000171
C28	C	0.173069	-0.472358	-0.000184
C29	C	0.058348	-0.516305	-0.000169
C30	C	0.060290	-0.588763	-0.000154
C31	C	0.081372	-0.363495	-0.042636
C32	C	0.079435	-0.291038	-0.042656
C33	C	0.167076	-0.248873	-0.000228
C34	C	0.256674	-0.279173	0.042210
C35	C	0.258616	-0.351631	0.042226
C36	C	0.170951	-0.393790	-0.000200
C37	C	0.279688	-0.126367	-0.000246
C38	C	0.277744	-0.053906	-0.000249
C39	C	0.046370	-0.069334	-0.000255
C40	C	0.048316	-0.141793	-0.000244
C41	C	0.164978	-0.170305	-0.000243
N42	N	0.169028	-0.821362	-0.188872
C43	C	0.082485	-0.868120	0.226553
C44	C	0.082480	-0.868125	0.302781
C45	C	0.169017	-0.821325	0.340917
C46	C	0.255545	-0.774505	0.302820
C47	C	0.255540	-0.774498	0.226593
C48	C	0.284673	-0.812793	0.461680
C49	C	0.284680	-0.812805	0.537905
C50	C	0.169033	-0.821345	0.576025
C51	C	0.053374	-0.829886	0.537910
C52	C	0.053369	-0.829879	0.461683
C53	C	0.169032	-0.821328	0.423572
C54	C	0.082498	-0.868163	0.696768
C55	C	0.082491	-0.868162	0.772997
C56	C	0.255568	-0.774547	0.773035
C57	C	0.255564	-0.774544	0.696807
C58	C	0.169031	-0.821356	0.658678
H59	H	-0.466254	-0.926061	-0.049417
H60	H	-0.418394	-0.726648	-0.074106
Cl61	Cl	-0.173614	-0.697573	-0.069850
H62	H	0.012034	-0.906278	0.665722
H63	H	-0.033121	-0.624537	-0.000146
H64	H	0.378856	-0.805855	0.568932
H65	H	-0.217552	-0.808810	-0.121176
H66	H	0.012022	-0.906236	0.195510
Cl67	Cl	-0.233368	-0.946135	-0.076644
H68	H	0.371156	-0.018133	-0.000253
H69	H	0.012021	-0.906245	0.333798
H70	H	-0.040804	-0.836832	0.430654
H71	H	-0.437055	-0.810231	-0.120809
H72	H	0.325997	-0.736378	0.195581
Cl73	Cl	-0.092021	-0.840628	0.585823
Cl74	Cl	0.371243	-0.389721	0.095577
H75	H	-0.246731	-0.929008	0.049146
Cl76	Cl	-0.026295	-0.927011	0.820883
H77	H	0.010002	-0.397821	-0.077190
Cl78	Cl	-0.100279	-0.033487	-0.000262
Cl79	Cl	0.438319	-0.609178	-0.000158
H80	H	-0.465323	-0.925920	0.049809
H81	H	-0.416456	-0.725386	0.071209
H82	H	-0.221312	-0.812025	0.120656
H83	H	-0.199682	-0.729222	0.071833
H84	H	-0.438538	-0.807716	0.120374
Cl85	Cl	0.433932	-0.445633	-0.000182
Cl86	Cl	0.430076	-0.802122	0.413766
Cl87	Cl	0.364349	-0.715707	0.820973
H88	H	0.326023	-0.736429	0.665793
H89	H	0.328039	-0.244843	0.076760
H90	H	0.326004	-0.736399	0.333874
H91	H	0.374681	-0.149582	-0.000234
H92	H	-0.045090	-0.177567	-0.000240
H93	H	0.006484	-0.266374	-0.077214
H94	H	-0.036630	-0.493079	-0.000190
