data_functionalizedCrystal
_audit_creation_method	'MofGen! by Chris Wilmer'
_symmetry_space_group_name_H-M	'P1'
_symmetry_Int_Tables_number	1
_symmetry_cell_setting	triclinic
loop_
_symmetry_equiv_pos_as_xyz
  x,y,z
_cell_length_a	6.817900
_cell_length_b	17.253917
_cell_length_c	11.102193
_cell_angle_alpha	97.514798
_cell_angle_beta	108.604059
_cell_angle_gamma	102.659311
loop_
_atom_site_label
_atom_site_type_symbol
_atom_site_fract_x
_atom_site_fract_y
_atom_site_fract_z
V1	V	-4.088148	-0.111300	-0.408321
O2	O	-4.071669	0.005342	-0.388135
O3	O	-4.041960	-0.220684	-0.417466
O4	O	-4.065281	-0.109591	-0.580957
O5	O	-4.048187	-0.106520	-0.223512
V6	V	-4.568180	-0.097348	-0.384766
O7	O	-4.357062	-0.141905	-0.459990
O8	O	-4.749463	-0.066743	-0.333097
O9	O	-4.391161	0.012036	-0.375621
O10	O	-4.702056	-0.213990	-0.404951
O11	O	-4.725538	-0.102128	-0.569574
O12	O	-4.367841	-0.099057	-0.212130
C13	C	-3.886673	-0.247349	-0.414105
C14	C	-3.930366	-0.336771	-0.422733
C15	C	-3.893139	-0.367293	-0.309156
C16	C	-3.934214	-0.451315	-0.317267
C17	C	-4.012502	-0.504815	-0.438956
C18	C	-4.049737	-0.474288	-0.552542
C19	C	-4.008676	-0.390268	-0.544430
C20	C	-4.141511	-0.757334	-0.475832
C21	C	-4.182564	-0.841360	-0.483936
C22	C	-4.067041	-0.818381	-0.248660
C23	C	-4.025973	-0.734360	-0.240558
C24	C	-4.063222	-0.703841	-0.354144
N25	N	-4.054482	-0.590700	-0.447250
N26	N	-4.021256	-0.617958	-0.345850
C27	C	-3.916419	-0.105638	-0.622652
C28	C	-3.979021	-0.104964	-0.763862
C29	C	-4.068418	-0.252297	-0.816157
C30	C	-4.142519	-0.325643	-0.908643
C31	C	-4.201339	-0.325006	-1.041319
C32	C	-4.186061	-0.251013	-1.081511
C33	C	-4.111960	-0.177667	-0.989026
C34	C	-4.053138	-0.178312	-0.856348
C35	C	-4.022579	-0.030336	-0.936731
C36	C	-3.963743	-0.030972	-0.804053
C37	C	-4.007301	0.043656	-0.976923
C38	C	-3.933184	0.117005	-0.884436
C39	C	-3.874360	0.116364	-0.751752
C40	C	-3.889643	0.042375	-0.711568
C41	C	-4.209790	0.038697	-0.378979
C42	C	-4.145336	0.128118	-0.370359
C43	C	-4.180043	-0.103013	-0.170428
C44	C	-4.096679	-0.103683	-0.029217
H45	H	-3.962239	-0.690805	-0.141467
H46	H	-3.829375	-0.323738	-0.210063
C47	C	-3.824941	0.041671	-0.565628
H48	H	-3.778609	0.095949	-0.516299
H49	H	-3.945322	0.011742	-0.549692
H50	H	-3.710938	0.016895	-0.540854
H51	H	-4.039014	-0.365420	-0.636917
H52	H	-3.814035	0.176092	-0.676455
C53	C	-4.159310	-0.407028	-0.864428
H54	H	-4.113648	-0.396906	-0.772165
H55	H	-4.304492	-0.439768	-0.901333
H56	H	-4.070109	-0.434613	-0.892497
C57	C	-3.893243	-0.484885	-0.192332
H58	H	-3.840708	-0.440989	-0.118697
H59	H	-4.024021	-0.519803	-0.194935
H60	H	-3.789677	-0.514564	-0.186274
H61	H	-3.920767	0.177243	-0.917173
C62	C	-4.003728	-0.253002	-0.670218
H63	H	-4.023455	-0.307571	-0.659527
H64	H	-3.856737	-0.223364	-0.626120
H65	H	-4.091130	-0.228517	-0.634978
C66	C	-4.268706	-0.900213	-0.617797
H67	H	-4.287803	-0.954622	-0.606355
H68	H	-4.402884	-0.893785	-0.669137
H69	H	-4.168538	-0.888546	-0.660470
C70	C	-4.282861	-0.405684	-1.143056
H71	H	-4.283532	-0.449842	-1.100123
H72	H	-4.424844	-0.411064	-1.200318
H73	H	-4.190465	-0.405922	-1.191479
H74	H	-4.113497	-0.517855	-0.651624
C75	C	-4.026091	-0.851951	-0.123725
H76	H	-3.973573	-0.808055	-0.050091
H77	H	-4.156875	-0.886870	-0.126339
H78	H	-3.922520	-0.881629	-0.117654
H79	H	-4.233985	-0.250501	-1.189547
C80	C	-4.182459	-0.723773	-0.600771
H81	H	-4.234939	-0.767670	-0.674401
H82	H	-4.286015	-0.694094	-0.606848
H83	H	-4.051657	-0.688855	-0.598153
H84	H	-4.055214	0.044170	-1.084958
