data_functionalizedCrystal
_audit_creation_method	'MofGen! by Chris Wilmer'
_symmetry_space_group_name_H-M	'P1'
_symmetry_Int_Tables_number	1
_symmetry_cell_setting	triclinic
loop_
_symmetry_equiv_pos_as_xyz
  x,y,z
_cell_length_a	25.639242
_cell_length_b	29.839132
_cell_length_c	25.639233
_cell_angle_alpha	89.978200
_cell_angle_beta	90.022166
_cell_angle_gamma	89.959210
loop_
_atom_site_label
_atom_site_type_symbol
_atom_site_fract_x
_atom_site_fract_y
_atom_site_fract_z
Zn1	Zn	0.799201	0.178962	0.295731
Zn2	Zn	0.799115	0.254076	0.208291
Zn3	Zn	0.711777	0.178955	0.208295
Zn4	Zn	0.711713	0.254059	0.295681
O5	O	0.755451	0.216513	0.251999
O6	O	0.872355	0.188935	0.284151
O7	O	0.787520	0.244115	0.135126
O8	O	0.723438	0.116089	0.219917
O9	O	0.872291	0.244122	0.219909
O10	O	0.787668	0.116094	0.284156
O11	O	0.723354	0.188924	0.135129
O12	O	0.638604	0.188908	0.219868
O13	O	0.723327	0.244093	0.368853
O14	O	0.638556	0.244087	0.284070
O15	O	0.787605	0.188919	0.368890
O16	O	0.787457	0.316941	0.219860
O17	O	0.723243	0.316929	0.284065
C18	C	0.619609	0.216495	0.251964
C19	C	0.561495	0.216499	0.251961
C20	C	0.755348	0.333236	0.251968
C21	C	0.755351	0.383170	0.251972
C22	C	0.201116	0.245293	0.285398
C23	C	0.146511	0.245295	0.285406
O24	O	0.118261	0.269755	0.313805
N25	N	0.119212	0.216525	0.252034
C26	C	0.146520	0.187748	0.218655
O27	O	0.118286	0.163276	0.190270
C28	C	0.201124	0.187743	0.218649
C29	C	0.228420	0.216518	0.252020
C30	C	0.228412	0.274065	0.318766
C31	C	0.283013	0.274063	0.318757
C32	C	0.310317	0.245288	0.285379
C33	C	0.283021	0.216516	0.252011
C34	C	0.228431	0.158963	0.185273
C35	C	0.283038	0.158961	0.185271
C36	C	0.310334	0.187736	0.218642
C37	C	0.364925	0.187739	0.218624
N38	N	0.392224	0.216509	0.251997
C39	C	0.364920	0.245283	0.285374
C40	C	0.031850	0.187759	0.218669
C41	C	-0.022753	0.187766	0.218671
C42	C	-0.022758	0.245313	0.285423
C43	C	0.031846	0.245308	0.285418
C44	C	0.059149	0.216529	0.252041
C45	C	0.479585	0.245277	0.285352
C46	C	0.534191	0.245273	0.285339
C47	C	0.534191	0.187724	0.218589
C48	C	0.479590	0.187729	0.218600
C49	C	0.452289	0.216507	0.251986
O50	O	0.393210	0.163290	0.190242
O51	O	0.393161	0.269746	0.313759
C52	C	0.788911	0.692807	0.218595
C53	C	0.788961	0.880480	0.218607
O54	O	0.817439	0.904740	0.190220
N55	N	0.755506	0.903955	0.252008
C56	C	0.722039	0.880509	0.285411
O57	O	0.693588	0.904782	0.313824
C58	C	0.721992	0.692837	0.285401
C59	C	0.755445	0.669364	0.251994
C60	C	0.822362	0.669335	0.185192
C61	C	0.822347	0.622419	0.185187
C62	C	0.788882	0.598976	0.218586
C63	C	0.755430	0.622449	0.251990
C64	C	0.688528	0.669391	0.318806
C65	C	0.688520	0.622470	0.318801
C66	C	0.721973	0.598998	0.285395
C67	C	0.721950	0.552090	0.285384
N68	N	0.755405	0.528615	0.251983
C69	C	0.788871	0.552058	0.218584
C70	C	0.722065	0.979039	0.285412
C71	C	0.722076	1.025957	0.285414
C72	C	0.788999	1.025925	0.218612
C73	C	0.788985	0.979007	0.218607
C74	C	0.755520	0.955565	0.252012
C75	C	0.788837	0.453533	0.218577
C76	C	0.788817	0.406613	0.218573
C77	C	0.721896	0.406649	0.285378
C78	C	0.721914	0.453564	0.285379
C79	C	0.755388	0.477005	0.251977
O80	O	0.693491	0.527802	0.313761
O81	O	0.817325	0.527777	0.190183
C82	C	0.788926	0.739723	0.218600
C83	C	0.755475	0.763195	0.252004
C84	C	0.722009	0.739752	0.285402
C85	C	0.755486	0.810113	0.252005
C86	C	0.788952	0.833556	0.218606
C87	C	0.822407	0.810081	0.185206
C88	C	0.822392	0.763166	0.185201
C89	C	0.688554	0.763227	0.318803
C90	C	0.688571	0.810143	0.318805
C91	C	0.722037	0.833586	0.285406
C92	C	0.891824	0.216531	0.252035
C93	C	0.949938	0.216539	0.252051
C94	C	0.755468	0.216505	0.388372
C95	C	0.755475	0.216502	0.446487
C96	C	0.755550	1.099335	0.252031
C97	C	0.755542	1.049400	0.252015
C98	C	0.755465	0.216488	0.116157
C99	C	0.755559	0.216365	0.058043
C100	C	0.788987	0.187687	0.806875
C101	C	0.788994	0.187675	0.861479
O102	O	0.817444	0.163229	0.889737
N103	N	0.755533	0.216396	0.888769
C104	C	0.722060	0.245129	0.861452
O105	O	0.693600	0.269558	0.889679
C106	C	0.722051	0.245139	0.806849
C107	C	0.755518	0.216419	0.779562
C108	C	0.822451	0.158969	0.779587
C109	C	0.822445	0.158982	0.724987
C110	C	0.788975	0.187714	0.697674
C111	C	0.755512	0.216432	0.724961
C112	C	0.688576	0.273869	0.779533
C113	C	0.688570	0.273876	0.724926
C114	C	0.722037	0.245156	0.697639
C115	C	0.722037	0.245176	0.643047
N116	N	0.755497	0.216455	0.615757
C117	C	0.788967	0.187723	0.643070
C118	C	0.722080	0.245106	0.976123
C119	C	0.722091	0.245099	1.030725
C120	C	0.789024	0.187644	1.030748
C121	C	0.789016	0.187653	0.976145
C122	C	0.755541	0.216384	0.948833
C123	C	0.788952	0.187753	0.528405
C124	C	0.788945	0.187770	0.473800
C125	C	0.722010	0.245224	0.473781
C126	C	0.722019	0.245208	0.528382
C127	C	0.755492	0.216470	0.555693
O128	O	0.693599	0.269609	0.614755
O129	O	0.817418	0.163295	0.614837
H130	H	0.556413	0.268707	0.312514
H131	H	0.694773	0.268599	0.550601
C132	C	0.859251	0.127384	0.694973
C133	C	0.900280	0.146854	0.657441
C134	C	0.937086	0.115251	0.627431
C135	C	0.932862	0.064179	0.634954
C136	C	0.891831	0.044706	0.672488
C137	C	0.855026	0.076309	0.702498
H138	H	0.903408	0.184663	0.651871
H139	H	0.967460	0.129666	0.599646
H140	H	0.960108	0.040785	0.612739
H141	H	0.888703	0.006897	0.678058
H142	H	0.824652	0.061894	0.730283
H143	H	0.849705	0.135570	0.801820
C144	C	0.651751	0.305484	0.694882
C145	C	0.610717	0.286024	0.657333
C146	C	0.573902	0.317633	0.627289
C147	C	0.578121	0.368703	0.634793
C148	C	0.619156	0.388167	0.672343
C149	C	0.655972	0.356557	0.702387
H150	H	0.607593	0.248216	0.651777
H151	H	0.543525	0.303225	0.599492
H152	H	0.550868	0.392103	0.612553
H153	H	0.622281	0.425974	0.677900
H154	H	0.686349	0.370965	0.730184
H155	H	0.694845	0.268490	1.052938
H156	H	0.849617	0.688417	0.157994
C157	C	0.825758	0.156174	0.443785
C158	C	0.803135	0.120909	0.406245
C159	C	0.839946	0.089313	0.376232
C160	C	0.899380	0.092983	0.383760
C161	C	0.922007	0.128250	0.421301
C162	C	0.885196	0.159846	0.451314
H163	H	0.759135	0.118190	0.400671
H164	H	0.823196	0.063206	0.348441
H165	H	0.926630	0.069594	0.361543
H166	H	0.966006	0.130969	0.426875
H167	H	0.901945	0.185953	0.479105
C168	C	0.825825	0.156058	0.946131
C169	C	0.821610	0.104985	0.953654
C170	C	0.858421	0.073387	0.923643
C171	C	0.899446	0.092863	0.886110
C172	C	0.903663	0.143938	0.878586
C173	C	0.866853	0.175536	0.908597
H174	H	0.791239	0.090566	0.981439
H175	H	0.855299	0.035578	0.929213
H176	H	0.926696	0.069472	0.863895
H177	H	0.934034	0.158357	0.850801
H178	H	0.869974	0.213345	0.903027
H179	H	-0.044999	0.268742	0.312603
C180	C	0.449559	0.276934	0.322074
C181	C	0.457032	0.327999	0.317688
C182	C	0.427006	0.359659	0.354406
C183	C	0.389506	0.340254	0.395509
C184	C	0.382031	0.289187	0.399896
C185	C	0.412057	0.257527	0.363178
H186	H	0.484793	0.342366	0.287260
H187	H	0.432539	0.397462	0.351158
H188	H	0.367278	0.363691	0.422689
H189	H	0.354270	0.274820	0.430324
H190	H	0.406523	0.219724	0.366426
H191	H	0.661325	0.829250	0.346008
H192	H	0.206215	0.135532	0.158098
H193	H	0.305233	0.297494	0.345932
C194	C	0.825837	0.156034	1.060800
C195	C	0.862646	0.124437	1.030791
C196	C	0.899456	0.092829	1.060843
C197	C	0.899457	0.092818	1.120905
C198	C	0.862647	0.124415	1.150917
C199	C	0.825837	0.156023	1.120864
H200	H	0.862647	0.124445	0.986326
H201	H	0.926706	0.069439	1.038626
H202	H	0.926707	0.069419	1.143152
H203	H	0.862647	0.124408	1.195381
H204	H	0.798588	0.179414	1.143082
H205	H	0.816096	0.472612	0.191378
H206	H	0.661303	0.744143	0.346001
C207	C	0.198384	0.305723	0.355483
C208	C	0.205864	0.356787	0.351098
C209	C	0.175841	0.388450	0.387814
C210	C	0.138338	0.369049	0.428917
C211	C	0.130857	0.317982	0.433304
C212	C	0.160880	0.286319	0.396588
H213	H	0.233628	0.371150	0.320670
H214	H	0.181380	0.426252	0.384566
H215	H	0.116114	0.392488	0.456097
H216	H	0.103093	0.303618	0.463732
H217	H	0.155341	0.248516	0.399836
H218	H	0.849590	0.603311	0.157986
H219	H	0.054067	0.268739	0.312592
H220	H	0.816207	0.164350	0.550635
C221	C	0.825787	0.953189	0.181863
C222	C	0.821564	0.959667	0.122422
C223	C	0.858369	0.933852	0.085677
C224	C	0.899397	0.901559	0.108374
C225	C	0.903623	0.895080	0.167819
C226	C	0.866818	0.920895	0.204563
H227	H	0.791191	0.983573	0.105618
H228	H	0.855241	0.938649	0.041672
H229	H	0.926643	0.882449	0.081174
H230	H	0.933996	0.871173	0.184623
H231	H	0.869946	0.916098	0.248568
C232	C	0.685203	0.276830	0.443725
C233	C	0.644176	0.257365	0.406172
C234	C	0.607370	0.288970	0.376112
C235	C	0.611590	0.340042	0.383604
C236	C	0.652618	0.359510	0.421159
C237	C	0.689425	0.327904	0.451219
H238	H	0.641051	0.219556	0.400624
H239	H	0.576998	0.274559	0.348311
H240	H	0.584344	0.363438	0.361352
H241	H	0.655744	0.397318	0.426707
H242	H	0.719797	0.342316	0.479020
C243	C	0.685261	0.276718	0.946083
C244	C	0.625829	0.273045	0.953585
C245	C	0.589009	0.304656	0.923549
C246	C	0.611620	0.339940	0.886011
C247	C	0.671055	0.343614	0.878508
C248	C	0.707876	0.312003	0.908544
H249	H	0.609087	0.246925	0.981374
H250	H	0.545011	0.301936	0.929104
H251	H	0.584364	0.363341	0.863777
H252	H	0.687797	0.369735	0.850719
H253	H	0.751873	0.314723	0.902989
C254	C	0.061880	0.156105	0.181944
C255	C	0.054406	0.105040	0.186316
C256	C	0.084433	0.073386	0.149591
C257	C	0.121934	0.092798	0.108494
C258	C	0.129410	0.143866	0.104120
C259	C	0.099383	0.175520	0.140845
H260	H	0.026644	0.090668	0.216740
H261	H	0.078898	0.035582	0.152830
H262	H	0.144162	0.069366	0.081308
H263	H	0.157172	0.158238	0.073696
H264	H	0.104917	0.213324	0.137606
C265	C	0.685273	1.051774	0.322158
C266	C	0.648465	1.025981	0.358897
C267	C	0.611663	1.051795	0.395644
C268	C	0.611668	1.103403	0.395654
C269	C	0.648477	1.129199	0.358914
C270	C	0.685279	1.103385	0.322166
H271	H	0.648460	0.987775	0.358891
H272	H	0.584414	1.032699	0.422842
H273	H	0.584425	1.122513	0.422857
H274	H	0.648483	1.167405	0.358920
H275	H	0.712528	1.122481	0.294969
H276	H	-0.044973	0.164338	0.191492
C277	C	0.313071	0.127303	0.148554
C278	C	0.350648	0.092059	0.171282
C279	C	0.380680	0.060403	0.134565
C280	C	0.373137	0.063991	0.075121
C281	C	0.335559	0.099237	0.052390
C282	C	0.305527	0.130893	0.089107
H283	H	0.356233	0.089401	0.215289
H284	H	0.408498	0.034312	0.151392
H285	H	0.395369	0.040558	0.047940
H286	H	0.329974	0.101895	0.008383
H287	H	0.277709	0.156985	0.072280
C288	C	0.564235	0.156072	0.181879
C289	C	0.601811	0.120834	0.204620
C290	C	0.631858	0.089178	0.167914
C291	C	0.624329	0.092761	0.108467
C292	C	0.586751	0.128000	0.085723
C293	C	0.556704	0.159656	0.122429
H294	H	0.607386	0.118181	0.248628
H295	H	0.659676	0.063091	0.184751
H296	H	0.646572	0.069327	0.081295
H297	H	0.581176	0.130653	0.041715
H298	H	0.528887	0.185742	0.105592
C299	C	0.825620	0.380794	0.181825
C300	C	0.821398	0.387276	0.122384
C301	C	0.858200	0.361460	0.085638
C302	C	0.899224	0.329161	0.108333
C303	C	0.903448	0.322678	0.167777
C304	C	0.866646	0.348495	0.204523
H305	H	0.791028	0.411187	0.105581
H306	H	0.855073	0.366259	0.041634
H307	H	0.926467	0.310050	0.081132
H308	H	0.933817	0.298768	0.184580
H309	H	0.869772	0.343695	0.248528
H310	H	0.694812	0.959956	0.312615
H311	H	0.457365	0.164299	0.191426
H312	H	0.661324	0.297256	0.801741
C313	C	0.651730	0.695201	0.355559
C314	C	0.592294	0.688791	0.351236
C315	C	0.555494	0.714599	0.387992
C316	C	0.578130	0.746815	0.429072
C317	C	0.637568	0.753226	0.433397
C318	C	0.674368	0.727419	0.396640
H319	H	0.575535	0.664941	0.320824
H320	H	0.511493	0.709853	0.384791
H321	H	0.550888	0.765920	0.456282
H322	H	0.654327	0.777076	0.463808
H323	H	0.718369	0.732165	0.399842
H324	H	0.661269	0.603386	0.346005
C325	C	0.685114	0.479389	0.322123
C326	C	0.625676	0.472994	0.317794
C327	C	0.588881	0.498816	0.354541
C328	C	0.611523	0.531033	0.395618
C329	C	0.670963	0.537429	0.399948
C330	C	0.707759	0.511607	0.363201
H331	H	0.608913	0.449144	0.287385
H332	H	0.544879	0.494081	0.351335
H333	H	0.584284	0.550148	0.422820
H334	H	0.687727	0.561279	0.430357
H335	H	0.751761	0.516343	0.366407
C336	C	0.859195	0.737350	0.148455
C337	C	0.854973	0.743834	0.089015
C338	C	0.891779	0.718023	0.052268
C339	C	0.932807	0.685728	0.074961
C340	C	0.937031	0.679243	0.134405
C341	C	0.900225	0.705054	0.171152
H342	H	0.824599	0.767742	0.072213
H343	H	0.888652	0.722824	0.008263
H344	H	0.960053	0.666621	0.047759
H345	H	0.967404	0.655335	0.151207
H346	H	0.903352	0.700253	0.215156
H347	H	0.849654	0.829176	0.158010
H348	H	0.816249	1.045021	0.191417
H349	H	0.694647	0.387554	0.312570
