data_functionalizedCrystal
_audit_creation_method	'MofGen! by Chris Wilmer'
_symmetry_space_group_name_H-M	'P1'
_symmetry_Int_Tables_number	1
_symmetry_cell_setting	triclinic
loop_
_symmetry_equiv_pos_as_xyz
  x,y,z
_cell_length_a	10.654553
_cell_length_b	15.944551
_cell_length_c	9.130313
_cell_angle_alpha	89.997799
_cell_angle_beta	89.999282
_cell_angle_gamma	83.992458
loop_
_atom_site_label
_atom_site_type_symbol
_atom_site_fract_x
_atom_site_fract_y
_atom_site_fract_z
O1	O	1.666305	0.117985	-0.121819
O2	O	1.300682	0.129222	-0.121819
O3	O	1.493478	0.001387	-0.121806
O4	O	1.473509	0.245821	-0.121832
O5	O	1.493475	0.001390	0.121793
O6	O	1.300679	0.129226	0.121780
O7	O	1.666303	0.117989	0.121780
Cu8	Cu	1.483491	0.123608	0.144022
Cu9	Cu	1.483494	0.123603	-0.144062
O10	O	1.473507	0.245824	0.121767
C11	C	1.253893	0.128399	-0.000019
C12	C	1.114482	0.125928	-0.000019
C13	C	0.917986	0.122443	0.132757
C14	C	1.048977	0.124769	0.132765
C15	C	1.048989	0.124770	-0.132820
C16	C	0.918000	0.122450	-0.132826
C17	C	0.917981	0.122439	0.286091
C18	C	1.048971	0.124765	0.286099
C19	C	1.492648	-0.029910	-0.000006
C20	C	1.490162	-0.123171	-0.000005
C21	C	1.364718	-0.338754	-0.000025
C22	C	1.422969	-0.399432	0.120083
C23	C	1.485666	-0.293923	-0.000017
C24	C	1.423000	-0.399419	-0.120086
C25	C	1.481314	-0.458861	-0.000034
C26	C	1.543951	-0.353372	0.120191
C27	C	1.543964	-0.353353	-0.120086
C28	C	1.602304	-0.414012	0.000052
C29	C	1.488170	-0.198906	-0.000006
C30	C	1.478820	-0.553876	-0.000035
C31	C	1.713091	0.118812	-0.000023
C32	C	1.852502	0.121283	-0.000033
C33	C	1.474337	0.277121	-0.000036
C34	C	1.476822	0.370382	-0.000047
N35	N	1.483498	0.123610	0.346645
N36	N	1.483496	0.123594	-0.346684
C37	C	1.568890	0.067024	0.423303
C38	C	1.568887	0.067014	0.576639
C39	C	1.398096	0.180183	0.576647
C40	C	1.398094	0.180189	0.423313
C41	C	1.667498	0.001688	0.423299
C42	C	1.667495	0.001678	0.576636
H43	H	0.864686	0.121516	-0.240957
H44	H	1.595063	-0.333084	0.221845
H45	H	1.595078	-0.332927	-0.221634
H46	H	0.870945	0.180485	0.344960
H47	H	1.758417	0.022147	0.375738
H48	H	1.637772	-0.059332	0.624190
H49	H	1.763820	0.016071	0.618251
H50	H	1.371829	-0.419794	-0.221636
H51	H	1.102333	0.125722	-0.240935
H52	H	0.889200	0.061179	0.333669
H53	H	1.096006	0.066715	0.344971
H54	H	1.077743	0.186029	0.333672
H55	H	1.264325	-0.306029	0.000095
H56	H	1.702784	-0.446589	0.000120
H57	H	1.371812	-0.419836	0.221626
H58	H	1.328551	0.226258	0.360900
H59	H	1.328561	0.226248	0.639087
H60	H	1.646891	-0.062873	0.381686
