data_functionalizedCrystal
_audit_creation_method	'MofGen! by Chris Wilmer'
_symmetry_space_group_name_H-M	'P1'
_symmetry_Int_Tables_number	1
_symmetry_cell_setting	triclinic
loop_
_symmetry_equiv_pos_as_xyz
  x,y,z
_cell_length_a	12.827893
_cell_length_b	18.050590
_cell_length_c	12.827885
_cell_angle_alpha	89.965317
_cell_angle_beta	89.980538
_cell_angle_gamma	90.018713
loop_
_atom_site_label
_atom_site_type_symbol
_atom_site_fract_x
_atom_site_fract_y
_atom_site_fract_z
Zn1	Zn	1.597649	-0.295620	-0.590813
Zn2	Zn	2.097649	0.204380	-0.090813
Zn3	Zn	1.597532	-0.419828	-0.416058
Zn4	Zn	2.097532	0.080172	0.083942
Zn5	Zn	1.422889	-0.295657	-0.416087
Zn6	Zn	1.922889	0.204343	0.083913
Zn7	Zn	1.422866	-0.419773	-0.590758
Zn8	Zn	1.922866	0.080227	-0.090758
O9	O	1.510234	-0.357720	-0.503429
O10	O	2.010234	0.142280	-0.003429
O11	O	1.743869	-0.312104	-0.567643
O12	O	2.243869	0.187896	-0.067643
O13	O	1.574327	-0.403395	-0.269826
O14	O	2.074327	0.096605	0.230174
O15	O	1.446130	-0.191727	-0.439299
O16	O	1.946130	0.308273	0.060701
O17	O	1.743784	-0.403359	-0.439251
O18	O	2.243784	0.096641	0.060749
O19	O	1.574525	-0.191701	-0.567670
O20	O	2.074525	0.308299	-0.067670
O21	O	1.446018	-0.312167	-0.269847
O22	O	1.946018	0.187833	0.230153
O23	O	1.276650	-0.312114	-0.439246
O24	O	1.776650	0.187886	0.060754
O25	O	1.446090	-0.403266	-0.737002
O26	O	1.946090	0.096734	-0.237002
O27	O	1.276633	-0.403301	-0.567577
O28	O	1.776633	0.096699	-0.067577
O29	O	1.574502	-0.312051	-0.737042
O30	O	2.074502	0.187949	-0.237042
O31	O	1.574304	-0.523745	-0.439198
O32	O	2.074304	-0.023745	0.060802
O33	O	1.445977	-0.523705	-0.567549
O34	O	1.945977	-0.023705	-0.067549
C35	C	1.238724	-0.357706	-0.503409
C36	C	1.738724	0.142294	-0.003409
C37	C	1.122571	-0.357718	-0.503426
C38	C	1.622571	0.142282	-0.003426
C39	C	1.070828	-0.312642	-0.567057
C40	C	1.570828	0.187358	-0.067057
C41	C	0.950778	-0.312654	-0.567075
C42	C	1.450778	0.187346	-0.067075
C43	C	1.510154	-0.550672	-0.503388
C44	C	2.010154	-0.050672	-0.003388
C45	C	1.510215	-0.633218	-0.503405
C46	C	2.010215	-0.133218	-0.003405
C47	C	1.580144	-0.832663	-0.433705
C48	C	2.080144	-0.332663	0.066295
C49	C	1.605674	-0.881988	-0.529080
C50	C	2.105674	-0.381988	-0.029080
C51	C	1.510274	-0.784348	-0.503446
C52	C	2.010274	-0.284348	-0.003446
C53	C	1.484851	-0.882104	-0.408114
C54	C	1.984851	-0.382104	0.091886
C55	C	1.510334	-0.930333	-0.503478
C56	C	2.010334	-0.430333	-0.003478
C57	C	1.535853	-0.832586	-0.598872
C58	C	2.035853	-0.332586	-0.098872
C59	C	1.414985	-0.832698	-0.477842
C60	C	1.914985	-0.332698	0.022158
C61	C	1.440479	-0.882000	-0.573282
C62	C	1.940479	-0.382000	-0.073282
C63	C	1.510243	-0.700250	-0.503427
C64	C	2.010243	-0.200250	-0.003427
C65	C	1.510365	-1.014429	-0.503509
C66	C	2.010365	-0.514429	-0.003509
C67	C	1.782804	-0.357734	-0.503450
C68	C	2.282804	0.142266	-0.003450
C69	C	1.898957	-0.357740	-0.503459
C70	C	2.398957	0.142260	-0.003459
C71	C	1.510306	-0.357648	-0.776000
C72	C	2.010306	0.142352	-0.276000
C73	C	1.510337	-0.357618	-0.892153
C74	C	2.010337	0.142382	-0.392153
C75	C	1.510343	-0.164014	-0.503494
C76	C	2.010343	0.335986	-0.003494
C77	C	1.510390	-0.081468	-0.503521
C78	C	2.010390	0.418532	-0.003521
C79	C	1.446865	-0.312467	-0.943948
C80	C	1.946865	0.187533	-0.443948
C81	C	1.446896	-0.312434	-1.063998
C82	C	1.946896	0.187566	-0.563998
C83	C	1.510222	-0.357737	-0.231919
C84	C	2.010222	0.142263	0.268081
C85	C	1.510394	-0.357558	-0.115767
C86	C	2.010394	0.142442	0.384233
H87	H	1.115406	-0.274040	-0.621516
H88	H	1.615406	0.225960	-0.121516
H89	H	1.334399	-0.811028	-0.456136
H90	H	1.834399	-0.311028	0.043864
Cl91	Cl	1.569251	-0.799152	-0.723398
Cl92	Cl	2.069251	-0.299152	-0.223398
H93	H	1.381418	-0.903527	-0.632343
H94	H	1.881418	-0.403527	-0.132343
Cl95	Cl	0.882083	-0.253073	-0.651194
Cl96	Cl	1.382083	0.246927	-0.151194
Cl97	Cl	1.363000	-0.252745	-1.132762
Cl98	Cl	1.863000	0.247255	-0.632762
H99	H	1.077993	-0.396316	-0.448960
H100	H	1.577993	0.103684	0.051040
H101	H	1.639251	-0.810999	-0.374787
H102	H	2.139251	-0.310999	0.125213
H103	H	0.943448	-0.396337	-0.448985
H104	H	1.443448	0.103663	0.051015
H105	H	1.564698	-0.396250	-0.936686
H106	H	2.064698	0.103750	-0.436686
H107	H	1.463323	-0.903855	-0.327480
H108	H	1.963323	-0.403855	0.172520
H109	H	1.686284	-0.903642	-0.550757
H110	H	2.186284	-0.403642	-0.050757
Cl111	Cl	1.362944	-0.252808	-0.875201
Cl112	Cl	1.862944	0.247192	-0.375201
Cl113	Cl	1.594304	-0.417241	-1.047009
Cl114	Cl	2.094304	0.082759	-0.547009
