data_functionalizedCrystal
_audit_creation_method	'MofGen! by Chris Wilmer'
_symmetry_space_group_name_H-M	'P1'
_symmetry_Int_Tables_number	1
_symmetry_cell_setting	triclinic
loop_
_symmetry_equiv_pos_as_xyz
  x,y,z
_cell_length_a	21.606444
_cell_length_b	21.606444
_cell_length_c	21.606444
_cell_angle_alpha	90.000833
_cell_angle_beta	59.999490
_cell_angle_gamma	60.011779
loop_
_atom_site_label
_atom_site_type_symbol
_atom_site_fract_x
_atom_site_fract_y
_atom_site_fract_z
Zr1	Zr	0.677374	0.596383	-0.081190
O2	O	0.806472	0.497587	-0.180003
O3	O	0.548275	0.626648	-0.050906
O4	O	0.677379	0.626673	-0.180018
O5	O	0.677364	0.497567	0.050964
O6	O	0.677384	0.728522	-0.180021
O7	O	0.677368	0.497562	-0.050890
O8	O	0.446440	0.728477	0.050937
O9	O	0.908308	0.497612	-0.179994
O10	O	0.601378	0.715591	-0.037984
O11	O	0.601372	0.639585	0.038032
O12	O	0.753375	0.639615	-0.113981
O13	O	0.753369	0.563609	-0.037966
Zr14	Zr	0.677374	0.758830	0.081250
Zr15	Zr	0.677381	0.758822	-0.081196
Zr16	Zr	0.677367	0.596392	0.081256
Zr17	Zr	0.839789	0.596423	-0.081177
Zr18	Zr	0.514958	0.758790	0.081237
O19	O	0.806472	0.728566	0.050966
O20	O	0.806482	0.728554	-0.180011
O21	O	0.806462	0.497599	0.050974
O22	O	0.548275	0.857626	0.180063
O23	O	0.548285	0.857614	-0.050914
O24	O	0.548265	0.626659	0.180071
O25	O	0.677384	0.857646	-0.050903
O26	O	0.677368	0.728541	0.180078
O27	O	0.677364	0.626691	0.180082
O28	O	0.677379	0.857651	0.050951
O29	O	0.908313	0.626729	-0.179999
O30	O	0.446434	0.728484	0.180059
O31	O	0.446440	0.857601	0.180055
O32	O	0.446445	0.857594	0.050932
O33	O	0.908302	0.497619	-0.050872
O34	O	0.908308	0.626736	-0.050876
O35	O	0.601372	0.715598	0.114041
O36	O	0.601378	0.791604	0.038026
O37	O	0.753375	0.715628	-0.037971
O38	O	0.753369	0.639623	0.038044
C39	C	0.474217	0.677557	0.000014
C40	C	0.405267	0.677540	0.000008
C41	C	0.677365	0.474421	0.000037
C42	C	0.677362	0.405461	0.000040
C43	C	-0.074201	0.733763	0.056157
C44	C	-0.009393	0.733747	0.056150
C45	C	0.079096	0.677637	0.000039
C46	C	0.102778	0.621545	-0.056072
C47	C	0.037970	0.621565	-0.056067
C48	C	0.364140	0.621464	-0.056095
C49	C	0.428948	0.621447	-0.056095
C50	C	0.316777	0.733646	0.056121
C51	C	0.251970	0.733666	0.056126
C52	C	0.275656	0.677576	0.000014
C53	C	0.205383	0.677595	0.000022
C54	C	0.149368	0.677614	0.000033
C55	C	0.598022	0.412721	0.039707
C56	C	0.598024	0.347923	0.039708
C57	C	0.677368	0.275867	0.000036
C58	C	0.756714	0.268610	-0.039632
C59	C	0.756711	0.333406	-0.039628
C60	C	0.756729	0.007291	-0.039649
C61	C	0.756727	-0.057507	-0.039652
C62	C	0.598043	0.021809	0.039687
C63	C	0.598039	0.086605	0.039691
C64	C	0.677385	0.079342	0.000026
C65	C	0.677382	0.149603	0.000027
C66	C	0.677372	0.205607	0.000031
C67	C	0.880531	0.677657	0.000046
C68	C	0.949480	0.677673	0.000052
C69	C	0.677382	0.677596	-0.203165
C70	C	0.677385	0.677593	-0.272127
C71	C	0.677382	0.880793	0.000023
C72	C	0.677385	0.949752	0.000020
C73	C	0.756726	0.637934	-0.344196
C74	C	0.756723	0.637940	-0.408990
C75	C	0.677380	0.677602	-0.401715
C76	C	0.598033	0.717266	-0.329639
C77	C	0.598037	0.717263	-0.264846
C78	C	0.598018	0.717278	-0.590942
C79	C	0.598021	0.717276	-0.655743
C80	C	0.756705	0.637955	-0.735087
C81	C	0.756708	0.637952	-0.670293
C82	C	0.677362	0.677619	-0.598223
C83	C	0.677366	0.677613	-0.527966
C84	C	0.677375	0.677604	-0.471971
C85	C	0.677365	0.677617	0.203225
C86	C	0.677362	0.677620	0.272187
C87	C	0.474225	0.880743	0.000006
C88	C	0.405279	0.949685	-0.000002
C89	C	0.474208	0.677567	0.203208
C90	C	0.405255	0.677554	0.272165
C91	C	0.474217	0.880753	0.203201
C92	C	0.405267	0.949699	0.272155
C93	C	0.880531	0.474460	-0.203141
C94	C	0.949480	0.405514	-0.272095
C95	C	0.880522	0.474471	0.000054
C96	C	0.949469	0.405528	0.000062
C97	C	0.880540	0.677646	-0.203148
C98	C	0.949492	0.677660	-0.272105
C99	C	0.372900	0.942383	-0.039689
C100	C	0.308127	1.007156	-0.039711
C101	C	0.275728	1.079230	-0.000042
C102	C	0.308112	1.086530	0.039646
C103	C	0.372889	1.021758	0.039664
C104	C	0.372874	0.717225	0.344231
C105	C	0.308095	0.717210	0.409030
C106	C	0.275693	0.677527	0.401760
C107	C	0.308081	0.637850	0.329687
C108	C	0.372863	0.637862	0.264890
C109	C	0.372891	1.021758	0.264858
C110	C	0.308114	1.086546	0.329641
C111	C	0.275711	1.079274	0.401722
C112	C	0.308093	1.007208	0.409018
C113	C	0.372873	0.942421	0.344235
C114	C	0.981864	0.333456	-0.264798
C115	C	1.046661	0.268667	-0.329581
C116	C	1.079068	0.275939	-0.401662
C117	C	1.046682	0.348006	-0.408958
C118	C	0.981890	0.412792	-0.344175
C119	C	0.981854	0.412830	0.039742
C120	C	1.046645	0.348058	0.039747
C121	C	1.079047	0.275984	0.000076
C122	C	1.046659	0.268683	-0.039609
C123	C	0.981873	0.333455	-0.039618
C124	C	0.981873	0.717351	-0.264811
C125	C	1.046653	0.717378	-0.329598
C126	C	1.079055	0.677710	-0.401676
C127	C	1.046667	0.638017	-0.408968
C128	C	0.981884	0.637995	-0.344183
H129	H	-0.028683	0.779422	0.101834
H130	H	0.222943	0.677523	0.454528
N131	N	0.273125	0.595056	0.321852
H132	H	0.227168	0.601078	0.373840
H133	H	0.246286	0.615889	0.293205
H134	H	0.399264	1.027693	0.206172
H135	H	0.955507	0.327499	-0.071929
N136	N	0.205852	1.149086	-0.000058
H137	H	0.190234	1.195856	0.031095
H138	H	0.228458	1.149041	-0.053819
H139	H	0.281724	1.145221	0.071943
N140	N	0.842303	0.595162	-0.352042
H141	H	0.845843	0.555233	-0.326930
H142	H	0.892515	0.570090	-0.407545
N143	N	0.389680	0.560966	-0.116603
H144	H	0.365307	0.585453	-0.146088
H145	H	0.455574	0.525432	-0.152096
H146	H	0.281767	1.001197	-0.072030
N147	N	1.081631	0.355845	-0.486703
H148	H	1.108515	0.384472	-0.492785
H149	H	1.127550	0.303840	-0.526582
H150	H	1.131806	0.677734	-0.454423
H151	H	0.281700	1.001298	0.467715
H152	H	0.955527	0.605670	-0.350132
H153	H	0.222963	1.132034	0.454466
N154	N	1.148909	0.206128	0.000104
H155	H	1.164523	0.159357	-0.031045
H156	H	1.202618	0.206183	-0.022450
N157	N	0.842297	0.595206	-0.486722
H158	H	0.892561	0.570090	-0.481499
H159	H	0.845787	0.555316	-0.515370
H160	H	0.174832	0.575862	-0.101761
H161	H	0.399243	1.027714	0.071986
H162	H	0.399225	0.883750	0.350187
N163	N	0.273167	0.760018	0.486756
H164	H	0.208135	0.799929	0.515405
H165	H	0.284505	0.723591	0.515357
N166	N	0.407812	0.760032	0.352083
H167	H	0.377463	0.785155	0.407573
H168	H	0.472846	0.723615	0.326929
H169	H	0.533429	0.749558	-0.206164
H170	H	0.955482	0.327520	-0.206112
N171	N	1.148949	0.206059	-0.471532
H172	H	1.164540	0.159309	-0.455964
H173	H	1.126358	0.206083	-0.502694
H174	H	0.399279	0.883703	-0.072001
N175	N	0.063509	0.561072	-0.116583
H176	H	0.129399	0.525523	-0.152130
H177	H	0.039050	0.531653	-0.092044
H178	H	1.073050	0.209992	-0.071909
N179	N	0.946952	0.490515	-0.352044
H180	H	0.996378	0.496599	-0.380665
H181	H	0.920073	0.496512	-0.380655
H182	H	0.281755	1.145220	0.323687
N183	N	-0.169642	0.794279	0.116680
H184	H	-0.174807	0.829809	0.152220
H185	H	-0.198961	0.823713	0.092141
N186	N	0.946915	0.490562	0.082533
H187	H	0.977273	0.485347	0.107664
H188	H	0.958191	0.519172	0.046098
H189	H	1.073019	0.209994	-0.323626
N190	N	0.407762	0.595059	0.187177
H191	H	0.396489	0.631428	0.158507
H192	H	0.472782	0.555134	0.158581
N193	N	1.081568	0.355941	0.082553
H194	H	1.051201	0.411429	0.107687
H195	H	1.070296	0.330784	0.122442
H196	H	0.955502	0.749653	-0.206127
N197	N	0.842285	0.595175	-0.678140
H198	H	0.892548	0.570054	-0.733628
H199	H	0.845738	0.631611	-0.652983
H200	H	0.821312	0.605658	-0.793776
H201	H	1.073016	0.749699	-0.323645
N202	N	0.512458	0.164319	0.082476
H203	H	0.477768	0.170380	0.137979
H204	H	0.524563	0.204221	0.076400
N205	N	0.512450	0.355752	0.082487
H206	H	0.508907	0.330641	0.122418
H207	H	0.462237	0.411245	0.107566
N208	N	0.291222	0.794152	0.116641
H209	H	0.315599	0.769667	0.146124
H210	H	0.315618	0.823612	0.092104
N211	N	0.512455	0.029650	0.082482
H212	H	0.477774	0.058262	0.061661
H213	H	0.524559	-0.022353	0.076454
H214	H	0.533406	0.749575	-0.649811
N215	N	0.156528	0.794182	0.116646
H216	H	0.151359	0.829715	0.152186
H217	H	0.127214	0.823613	0.092102
N218	N	1.081620	0.595231	-0.486712
H219	H	1.070351	0.631619	-0.515365
H220	H	1.146643	0.555327	-0.515288
N221	N	0.524395	0.560934	-0.116624
H222	H	0.529567	0.525408	-0.152175
H223	H	0.553723	0.585479	-0.146044
H224	H	0.533411	0.471389	0.072016
H225	H	0.821342	-0.116180	-0.071958
H226	H	0.821317	0.209936	-0.071929
N227	N	0.842305	-0.000545	-0.082443
H228	H	0.892567	-0.056025	-0.107581
H229	H	0.845751	0.024613	-0.122329
H230	H	0.821318	0.327491	-0.071920
H231	H	0.533410	0.749577	-0.532268
H232	H	0.533430	0.749563	-0.323720
