data_functionalizedCrystal
_audit_creation_method	'MofGen! by Chris Wilmer'
_symmetry_space_group_name_H-M	'P1'
_symmetry_Int_Tables_number	1
_symmetry_cell_setting	triclinic
loop_
_symmetry_equiv_pos_as_xyz
  x,y,z
_cell_length_a	16.120530
_cell_length_b	16.120484
_cell_length_c	16.120297
_cell_angle_alpha	84.385569
_cell_angle_beta	89.871860
_cell_angle_gamma	90.167327
loop_
_atom_site_label
_atom_site_type_symbol
_atom_site_fract_x
_atom_site_fract_y
_atom_site_fract_z
Zn1	Zn	1.224987	-0.422264	0.554813
Zn2	Zn	1.224883	-0.554948	0.422118
Zn3	Zn	1.093726	-0.408180	0.408056
Zn4	Zn	1.078880	-0.554181	0.554051
O5	O	1.155619	-0.484893	0.484760
O6	O	1.341009	-0.446081	0.543415
O7	O	1.213654	-0.529906	0.303620
O8	O	1.117395	-0.293418	0.421958
O9	O	1.340932	-0.543563	0.445925
O10	O	1.213832	-0.303765	0.529780
O11	O	1.117294	-0.422076	0.293289
O12	O	0.975721	-0.421332	0.421218
O13	O	1.092092	-0.542255	0.670785
O14	O	0.964814	-0.528598	0.528480
O15	O	1.199436	-0.445336	0.671345
O16	O	1.199258	-0.671477	0.445185
O17	O	1.091990	-0.670913	0.542116
C18	C	0.940181	-0.473354	0.473241
C19	C	0.848013	-0.468438	0.468334
C20	C	0.679262	-0.459445	0.459381
C21	C	0.632810	-0.510407	0.510202
C22	C	0.538911	-0.505403	0.505220
C23	C	0.773169	-0.464448	0.464361
C24	C	1.144023	-0.701438	0.495113
C25	C	1.139137	-0.794083	0.499574
C26	C	1.130220	-0.963706	0.507736
C27	C	1.181166	-1.005249	0.461804
C28	C	1.176204	-1.099633	0.466346
C29	C	1.135180	-0.869313	0.503196
C30	C	1.371899	-0.496479	0.496324
C31	C	1.464064	-0.501416	0.501252
C32	C	1.144119	-0.495281	0.702152
C33	C	1.139219	-0.499708	0.794791
C34	C	1.167282	-0.267505	0.474385
C35	C	1.172251	-0.174867	0.469964
C36	C	1.167125	-0.474489	0.268213
C37	C	1.172198	-0.469836	0.175571
C38	C	1.130243	-0.507770	0.964403
C39	C	1.181172	-0.461776	1.005965
C40	C	1.176177	-0.466262	1.100342
C41	C	1.135236	-0.503285	0.870017
H42	H	0.648511	-0.412060	0.412135
C43	C	1.066285	-0.565520	1.012086
C44	C	1.095621	-0.635659	1.077015
C45	C	1.031670	-0.693412	1.124713
C46	C	0.938381	-0.681025	1.107483
C47	C	0.909040	-0.610883	1.042551
C48	C	0.972992	-0.553130	0.994853
H49	H	1.164683	-0.644832	1.089772
H50	H	1.053390	-0.745336	1.172780
H51	H	0.891040	-0.723777	1.142792
H52	H	0.839978	-0.601711	1.029793
H53	H	0.951271	-0.501206	0.946786
C54	C	0.674348	-0.574432	0.574031
C55	C	0.620622	-0.633474	0.632901
C56	C	0.662164	-0.697499	0.696725
C57	C	0.757431	-0.702482	0.701678
C58	C	0.811162	-0.643438	0.642805
C59	C	0.769621	-0.579413	0.578982
H60	H	0.550095	-0.629787	0.629236
H61	H	0.622388	-0.741207	0.740306
H62	H	0.788182	-0.749877	0.748924
H63	H	0.881689	-0.647125	0.646470
H64	H	0.809396	-0.535705	0.535400
H65	H	1.228508	-0.969931	0.419069
C66	C	1.245150	-0.404036	0.958287
C67	C	1.338431	-0.416451	0.975540
C68	C	1.402409	-0.358716	0.927857
C69	C	1.373105	-0.288568	0.862922
C70	C	1.279819	-0.276151	0.845665
C71	C	1.215842	-0.333885	0.893348
H72	H	1.360128	-0.468381	1.023612
H73	H	1.471466	-0.367909	0.940632
H74	H	1.420465	-0.245830	0.827624
H75	H	1.258123	-0.224220	0.797593
H76	H	1.146785	-0.324692	0.880573
H77	H	1.082881	-0.999022	0.550467
