data_functionalizedCrystal
_audit_creation_method	'MofGen! by Chris Wilmer'
_symmetry_space_group_name_H-M	'P1'
_symmetry_Int_Tables_number	1
_symmetry_cell_setting	triclinic
loop_
_symmetry_equiv_pos_as_xyz
  x,y,z
_cell_length_a	14.971494
_cell_length_b	14.853567
_cell_length_c	14.048226
_cell_angle_alpha	89.996514
_cell_angle_beta	89.995286
_cell_angle_gamma	83.626244
loop_
_atom_site_label
_atom_site_type_symbol
_atom_site_fract_x
_atom_site_fract_y
_atom_site_fract_z
O1	O	0.116781	1.196349	-0.079091
O2	O	0.616781	1.696349	0.420909
O3	O	0.130692	0.933887	-0.079107
O4	O	0.630692	1.433887	0.420893
O5	O	-0.006462	1.072149	-0.079097
O6	O	0.493538	1.572149	0.420903
O7	O	0.253935	1.058088	-0.079102
O8	O	0.753935	1.558088	0.420898
O9	O	-0.006470	1.072132	0.079225
O10	O	0.493530	1.572132	0.579225
O11	O	0.130684	0.933871	0.079214
O12	O	0.630684	1.433871	0.579214
O13	O	0.116773	1.196332	0.079230
O14	O	0.616773	1.696332	0.579230
Zn15	Zn	0.123727	1.065099	0.104359
Zn16	Zn	0.623727	1.565099	0.604359
Zn17	Zn	0.123738	1.065121	-0.104236
Zn18	Zn	0.623738	1.565121	0.395764
O19	O	0.253927	1.058071	0.079220
O20	O	0.753927	1.558071	0.579220
C21	C	0.130058	0.900291	0.000051
C22	C	0.630058	1.400291	0.500051
C23	C	0.128169	0.800207	0.000045
C24	C	0.628169	1.300207	0.500045
C25	C	0.038712	0.387687	0.000068
C26	C	0.538712	0.887687	0.500068
C27	C	0.201654	0.366381	0.000064
C28	C	0.701654	0.866381	0.500064
C29	C	0.203430	0.460415	0.000061
C30	C	0.703430	0.960415	0.500061
C31	C	0.122846	0.518089	0.000060
C32	C	0.622846	1.018089	0.500060
C33	C	0.040486	0.481730	0.000062
C34	C	0.540486	0.981730	0.500062
C35	C	0.285789	0.496781	0.000049
C36	C	0.785789	0.996781	0.500049
C37	C	0.287568	0.590820	0.000045
C38	C	0.787568	1.090820	0.500045
C39	C	0.206983	0.648496	0.000051
C40	C	0.706983	1.148496	0.500051
C41	C	0.124619	0.612131	0.000054
C42	C	0.624619	1.112131	0.500054
C43	C	0.044035	0.669805	0.000053
C44	C	0.544035	1.169805	0.500053
C45	C	-0.038329	0.633443	0.000063
C46	C	0.461671	1.133443	0.500063
C47	C	-0.040100	0.539406	0.000068
C48	C	0.459900	1.039406	0.500068
C49	C	0.208753	0.742533	0.000046
C50	C	0.708753	1.242533	0.500046
C51	C	0.045809	0.763848	0.000047
C52	C	0.545809	1.263848	0.500047
C53	C	-0.039790	1.071511	0.000063
C54	C	0.460210	1.571511	0.500063
C55	C	-0.139088	1.069622	0.000058
C56	C	0.360912	1.569622	0.500058
C57	C	-0.185728	1.068746	-0.086244
C58	C	0.314272	1.568746	0.413756
C59	C	-0.279027	1.066966	-0.086245
C60	C	0.220973	1.566966	0.413755
C61	C	-0.325685	1.066068	0.000056
C62	C	0.174315	1.566068	0.500056
C63	C	-0.279038	1.066941	0.086365
C64	C	0.220962	1.566941	0.586365
C65	C	-0.185740	1.068715	0.086365
C66	C	0.314260	1.568715	0.586365
C67	C	-0.473502	1.063246	0.086359
C68	C	0.026498	1.563246	0.586359
C69	C	-0.566807	1.061474	0.086359
C70	C	-0.066807	1.561474	0.586359
C71	C	-0.566790	1.061497	-0.086252
C72	C	-0.066790	1.561497	0.413748
C73	C	-0.473491	1.063271	-0.086252
C74	C	0.026509	1.563271	0.413748
C75	C	-0.426850	1.064146	0.000057
C76	C	0.073150	1.564146	0.500057
C77	C	0.287255	1.058709	0.000058
C78	C	0.787255	1.558709	0.500058
C79	C	0.386553	1.060598	0.000057
C80	C	0.886553	1.560598	0.500057
C81	C	0.117407	1.229929	0.000069
C82	C	0.617407	1.729929	0.500069
C83	C	0.119296	1.330013	0.000069
C84	C	0.619296	1.830013	0.500069
N85	N	0.123719	1.065091	0.246720
N86	N	0.623719	1.565091	0.746720
N87	N	0.123739	1.065136	-0.246597
N88	N	0.623739	1.565136	0.253403
C89	C	0.063013	1.126332	0.296542
C90	C	0.563013	1.626332	0.796542
C91	C	0.063012	1.126338	0.396200
C92	C	0.563012	1.626338	0.896200
C93	C	0.123723	1.065106	0.446033
C94	C	0.623723	1.565106	0.946033
C95	C	0.184433	1.003858	0.396204
C96	C	0.684433	1.503858	0.896204
C97	C	0.184428	1.003849	0.296548
C98	C	0.684428	1.503849	0.796548
C99	C	0.184439	1.003884	0.603918
C100	C	0.684439	1.503884	1.103918
C101	C	0.184445	1.003895	0.703581
C102	C	0.684445	1.503895	1.203581
C103	C	0.063023	1.126374	0.703570
C104	C	0.563023	1.626374	1.203570
C105	C	0.063019	1.126364	0.603914
C106	C	0.563019	1.626364	1.103914
C107	C	0.123730	1.065117	0.554092
C108	C	0.623730	1.565117	1.054092
H109	H	-0.107157	0.509790	0.000099
H110	H	0.392843	1.009790	0.500099
H111	H	-0.316998	1.066256	-0.156521
H112	H	0.183002	1.566256	0.343479
H113	H	-0.103941	0.680413	0.000056
H114	H	0.396059	1.180413	0.500056
N115	N	-0.423164	1.064246	-0.179331
N116	N	0.076836	1.564246	0.320669
H117	H	-0.446580	1.119785	-0.217056
H118	H	0.053420	1.619785	0.282944
H119	H	-0.432229	1.008062	-0.216994
H120	H	0.067771	1.508062	0.283006
N121	N	-0.050121	0.348476	0.000092
N122	N	0.449879	0.848476	0.500092
H123	H	-0.039022	0.280152	0.000101
H124	H	0.460978	0.780152	0.500101
H125	H	-0.085390	0.369562	-0.058598
H126	H	0.414610	0.869562	0.441402
N127	N	0.288564	0.304178	0.000058
N128	N	0.788564	0.804178	0.500058
H129	H	0.341007	0.341483	0.000053
H130	H	0.841007	0.841483	0.500053
H131	H	0.291373	0.264705	-0.058637
H132	H	0.791373	0.764705	0.441363
H133	H	0.351396	0.449816	0.000040
H134	H	0.851396	0.949816	0.500040
H135	H	0.013580	1.176205	0.436765
H136	H	0.513580	1.676205	0.936765
N137	N	0.249910	0.937794	0.242814
N138	N	0.749910	1.437794	0.742814
H139	H	0.289575	0.972277	0.201452
H140	H	0.789575	1.472277	0.701452
H141	H	0.215588	0.897854	0.201537
H142	H	0.715588	1.397854	0.701537
H143	H	0.013588	1.176228	0.563340
H144	H	0.513588	1.676228	1.063340
H145	H	0.013590	1.176243	0.744142
H146	H	0.513590	1.676243	1.244142
N147	N	0.249933	0.937863	0.757333
N148	N	0.749933	1.437863	1.257333
H149	H	0.288390	0.899059	0.710651
H150	H	0.788390	1.399059	1.210651
H151	H	0.215621	0.897981	0.798701
H152	H	0.715621	1.397981	1.298701
N153	N	0.376398	0.630037	0.000028
N154	N	0.876398	1.130037	0.500028
H155	H	0.427177	0.579230	0.000026
H156	H	0.927177	1.079230	0.500026
H157	H	0.380685	0.668589	0.058717
H158	H	0.880685	1.168589	0.558717
H159	H	-0.435527	1.063939	0.156641
H160	H	0.064473	1.563939	0.656641
H161	H	-0.604769	1.060782	-0.156528
H162	H	-0.104769	1.560782	0.343472
H163	H	-0.147746	1.069482	-0.156521
H164	H	0.352254	1.569482	0.343479
N165	N	0.249915	0.937823	0.550177
N166	N	0.749915	1.437823	1.050177
H167	H	0.288378	0.899035	0.596866
H168	H	0.788378	1.399035	1.096866
H169	H	0.289518	0.972374	0.508817
H170	H	0.789518	1.472374	1.008817
H171	H	-0.147764	1.069416	0.156642
H172	H	0.352236	1.569416	0.656642
N173	N	0.249913	0.937819	0.449956
N174	N	0.749913	1.437819	0.949956
H175	H	0.313415	0.948265	0.432600
H176	H	0.813415	1.448265	0.932600
H177	H	0.239416	0.873853	0.432610
H178	H	0.739416	1.373853	0.932610
N179	N	0.297576	0.781755	0.000025
N180	N	0.797576	1.281755	0.500025
H181	H	0.348357	0.730950	0.000020
H182	H	0.848357	1.230950	0.500020
H183	H	0.301865	0.820306	0.058714
H184	H	0.801865	1.320306	0.558714
H185	H	-0.317034	1.066205	0.156634
H186	H	0.182966	1.566205	0.656634
N187	N	-0.041109	0.826052	0.000058
N188	N	0.458891	1.326052	0.500058
H189	H	-0.093550	0.788745	0.000067
H190	H	0.406450	1.288745	0.500067
H191	H	-0.043925	0.865532	-0.058637
H192	H	0.456075	1.365532	0.441363
H193	H	-0.604793	1.060736	0.156633
H194	H	-0.104793	1.560736	0.656633
H195	H	0.013578	1.176198	0.255975
H196	H	0.513578	1.676198	0.755975
