data_functionalizedCrystal
_audit_creation_method	'MofGen! by Chris Wilmer'
_symmetry_space_group_name_H-M	'P1'
_symmetry_Int_Tables_number	1
_symmetry_cell_setting	triclinic
loop_
_symmetry_equiv_pos_as_xyz
  x,y,z
_cell_length_a	17.699077
_cell_length_b	17.699083
_cell_length_c	16.176319
_cell_angle_alpha	89.992304
_cell_angle_beta	89.993140
_cell_angle_gamma	83.281795
loop_
_atom_site_label
_atom_site_type_symbol
_atom_site_fract_x
_atom_site_fract_y
_atom_site_fract_z
O1	O	1.004082	0.095692	-0.068737
O2	O	0.783703	0.108149	-0.068741
O3	O	0.900118	-0.008269	-0.068732
O4	O	0.887666	0.212110	-0.068747
O5	O	0.900102	-0.008277	0.068761
O6	O	0.783687	0.108141	0.068752
O7	O	1.004066	0.095684	0.068756
Cu8	Cu	0.893875	0.101912	0.081308
Cu9	Cu	0.893894	0.101921	-0.081294
O10	O	0.887650	0.212102	0.068746
C11	C	0.755498	0.107700	0.000005
C12	C	0.671479	0.106363	0.000003
C13	C	0.899664	-0.036470	0.000015
C14	C	0.898326	-0.120488	0.000015
C15	C	0.632003	0.105729	0.074952
C16	C	0.553061	0.104461	0.074953
C17	C	0.513595	0.103832	0.000004
C18	C	0.553077	0.104464	-0.074950
C19	C	0.632019	0.105726	-0.074950
C20	C	0.234714	0.099370	-0.074951
C21	C	0.155766	0.098110	-0.074945
C22	C	0.155755	0.098105	0.074952
C23	C	0.234697	0.099367	0.074951
C24	C	0.274173	0.099995	-0.000002
C25	C	0.359772	0.101369	-0.000002
C26	C	0.427997	0.102464	0.000004
C27	C	0.966659	-0.169110	0.000018
C28	C	0.965397	-0.248054	0.000010
C29	C	0.895800	-0.278373	0.000006
C30	C	0.827461	-0.229744	0.000001
C31	C	0.828724	-0.150803	0.000003
C32	C	0.822366	-0.548107	-0.000005
C33	C	0.821108	-0.627055	-0.000004
C34	C	0.959039	-0.645358	0.000002
C35	C	0.960302	-0.566417	0.000003
C36	C	0.891963	-0.517795	-0.000006
C37	C	0.893333	-0.432196	0.000000
C38	C	0.894430	-0.363971	0.000006
C39	C	1.032271	0.096133	0.000008
C40	C	1.116289	0.097470	0.000004
C41	C	0.888104	0.240303	-0.000002
C42	C	0.889443	0.324321	-0.000008
N43	N	0.893867	0.101906	0.195673
N44	N	0.893907	0.101921	-0.195659
C45	C	0.945431	0.050377	0.238942
C46	C	0.945435	0.050376	0.325489
C47	C	0.893878	0.101908	0.368766
C48	C	0.842308	0.153439	0.325491
C49	C	0.842301	0.153436	0.238946
C50	C	0.842334	0.153454	0.674520
C51	C	0.842346	0.153455	0.761071
C52	C	0.945468	0.050393	0.761063
C53	C	0.945461	0.050390	0.674517
C54	C	0.893889	0.101918	0.631250
C55	C	0.893884	0.101918	0.537406
C56	C	0.893885	0.101913	0.462608
H57	H	0.664130	0.106247	0.135984
H58	H	0.987459	0.008434	0.796300
F59	F	0.753391	-0.262014	-0.000012
F60	F	0.787468	0.208304	0.807128
H61	H	0.766721	-0.508528	-0.000013
F62	F	0.511075	0.103771	-0.154716
H63	H	0.520924	0.103932	0.135983
H64	H	0.800343	0.195411	0.639299
F65	F	0.755994	-0.099055	-0.000002
H66	H	0.800325	0.195395	0.360733
F67	F	1.000311	-0.004469	0.192891
F68	F	1.040735	-0.136850	0.000030
H69	H	1.014683	-0.684956	0.000005
H70	H	0.664159	0.106244	-0.135981
F71	F	1.034376	-0.534153	0.000007
F72	F	1.000338	-0.004454	0.628462
F73	F	0.787417	0.208278	0.192898
F74	F	0.747030	-0.659321	-0.000010
H75	H	0.266826	0.099883	0.135982
H76	H	0.266845	0.099879	-0.135983
F77	F	1.000315	-0.004468	0.371539
H78	H	0.123605	0.097590	0.135983
F79	F	0.113765	0.097439	-0.154720
H80	H	1.021041	-0.287639	0.000014
