data_functionalizedCrystal
_audit_creation_method	'MofGen! by Chris Wilmer'
_symmetry_space_group_name_H-M	'P1'
_symmetry_Int_Tables_number	1
_symmetry_cell_setting	triclinic
loop_
_symmetry_equiv_pos_as_xyz
  x,y,z
_cell_length_a	11.026660
_cell_length_b	10.967961
_cell_length_c	9.130313
_cell_angle_alpha	77.872192
_cell_angle_beta	89.999618
_cell_angle_gamma	96.380384
loop_
_atom_site_label
_atom_site_type_symbol
_atom_site_fract_x
_atom_site_fract_y
_atom_site_fract_z
O1	O	1.614508	0.523475	-0.253914
O2	O	1.260708	0.463868	-0.238872
O3	O	1.445768	0.313859	-0.201007
O4	O	1.429448	0.673484	-0.291778
O5	O	1.445765	0.313863	0.042591
O6	O	1.260705	0.463872	0.004726
O7	O	1.614506	0.523479	-0.010316
Cu8	Cu	1.437605	0.493676	0.019447
Cu9	Cu	1.437608	0.493671	-0.268635
O10	O	1.429446	0.673488	-0.048181
C11	C	1.215404	0.452874	-0.114298
C12	C	1.080418	0.420092	-0.106025
C13	C	0.867850	0.476738	-0.120327
C14	C	1.007365	0.510622	-0.128877
C15	C	1.444578	0.267106	-0.067410
C16	C	1.441024	0.127786	-0.032254
C17	C	1.435772	-0.078322	-0.106435
C18	C	1.439442	0.065672	-0.142781
C19	C	1.659809	0.534474	-0.134893
C20	C	1.794796	0.567255	-0.143176
C21	C	1.430635	0.720241	-0.181781
C22	C	1.434190	0.859561	-0.216946
N23	N	1.437612	0.493681	0.222069
N24	N	1.437611	0.493658	-0.471254
C25	C	1.519578	0.427291	0.315479
C26	C	1.519575	0.427275	0.468820
C27	C	1.355636	0.560051	0.435324
C28	C	1.355634	0.560058	0.281988
C29	C	1.614231	0.350638	0.334817
C30	C	1.614227	0.350622	0.488158
H31	H	1.048102	0.613208	-0.154761
H32	H	1.039683	0.317505	-0.080229
C33	C	1.265475	0.633068	0.501239
H34	H	1.277218	0.623561	0.605938
H35	H	1.184226	0.601221	0.484145
H36	H	1.279377	0.719484	0.454309
H37	H	0.835538	0.669835	-0.169058
C38	C	1.433935	-0.150477	0.057730
H39	H	1.431719	-0.237790	0.060622
H40	H	1.363710	-0.135466	0.108541
H41	H	1.505266	-0.122697	0.105304
H42	H	1.440794	0.119088	-0.264309
C43	C	1.439176	0.055638	0.131921
H44	H	1.436956	-0.031677	0.134816
H45	H	1.368947	0.070654	0.182720
H46	H	1.510503	0.083414	0.179505
H47	H	1.702496	0.400068	0.274783
H48	H	1.435543	-0.087018	-0.338466
H49	H	1.288881	0.614106	0.205937
C50	C	1.586197	0.215028	0.312809
H51	H	1.574657	0.159251	0.407812
H52	H	1.652508	0.193870	0.260344
H53	H	1.514109	0.208301	0.256709
C54	C	1.574364	0.219577	0.585478
H55	H	1.556619	0.161227	0.522710
H56	H	1.503560	0.222631	0.643275
H57	H	1.638341	0.194017	0.650477
C58	C	1.740423	0.406728	0.530237
H59	H	1.740418	0.406705	0.634296
H60	H	1.757724	0.490385	0.474463
H61	H	1.800980	0.357688	0.507933
C62	C	0.812823	0.338160	-0.085353
H63	H	0.726271	0.333566	-0.084205
H64	H	0.839119	0.297708	0.009803
H65	H	0.839119	0.297714	-0.160106
