data_functionalizedCrystal
_audit_creation_method	'MofGen! by Chris Wilmer'
_symmetry_space_group_name_H-M	'P1'
_symmetry_Int_Tables_number	1
_symmetry_cell_setting	triclinic
loop_
_symmetry_equiv_pos_as_xyz
  x,y,z
_cell_length_a	16.120490
_cell_length_b	19.120786
_cell_length_c	19.121324
_cell_angle_alpha	95.009372
_cell_angle_beta	90.596294
_cell_angle_gamma	89.433653
loop_
_atom_site_label
_atom_site_type_symbol
_atom_site_fract_x
_atom_site_fract_y
_atom_site_fract_z
Zn1	Zn	1.236524	-0.313990	0.436445
Zn2	Zn	1.486524	-0.063990	0.686445
Zn3	Zn	1.736524	0.186010	0.936445
Zn4	Zn	1.986524	0.436010	1.186445
Zn5	Zn	1.236423	-0.436676	0.313752
Zn6	Zn	1.486423	-0.186676	0.563752
Zn7	Zn	1.736423	0.063324	0.813752
Zn8	Zn	1.986423	0.313324	1.063752
Zn9	Zn	1.103366	-0.313556	0.313349
Zn10	Zn	1.353366	-0.063556	0.563349
Zn11	Zn	1.603366	0.186444	0.813349
Zn12	Zn	1.853366	0.436444	1.063349
Zn13	Zn	1.091967	-0.425688	0.425471
Zn14	Zn	1.341967	-0.175688	0.675471
Zn15	Zn	1.591967	0.074312	0.925471
Zn16	Zn	1.841967	0.324312	1.175471
O17	O	1.167070	-0.372478	0.372254
O18	O	1.417070	-0.122478	0.622254
O19	O	1.667070	0.127522	0.872254
O20	O	1.917070	0.377522	1.122254
O21	O	1.352694	-0.335044	0.424931
O22	O	1.602694	-0.085044	0.674931
O23	O	1.852694	0.164956	0.924931
O24	O	2.102694	0.414956	1.174931
O25	O	1.223501	-0.424761	0.215427
O26	O	1.473501	-0.174761	0.465427
O27	O	1.723501	0.075239	0.715427
O28	O	1.973501	0.325239	0.965427
O29	O	1.125843	-0.215341	0.334101
O30	O	1.375843	0.034659	0.584101
O31	O	1.625843	0.284659	0.834101
O32	O	1.875843	0.534659	1.084101
O33	O	1.352619	-0.425182	0.334789
O34	O	1.602619	-0.175182	0.584789
O35	O	1.852619	0.074818	0.834789
O36	O	2.102619	0.324818	1.084789
O37	O	1.223673	-0.215659	0.424540
O38	O	1.473673	0.034341	0.674540
O39	O	1.723673	0.284341	0.924540
O40	O	1.973673	0.534341	1.174540
O41	O	1.125745	-0.334305	0.215131
O42	O	1.375745	-0.084305	0.465131
O43	O	1.625745	0.165695	0.715131
O44	O	1.875745	0.415695	0.965131
O45	O	0.985671	-0.323650	0.323461
O46	O	1.235671	-0.073650	0.573461
O47	O	1.485671	0.176350	0.823461
O48	O	1.735671	0.426350	1.073461
O49	O	1.106414	-0.406454	0.525198
O50	O	1.356414	-0.156454	0.775198
O51	O	1.606414	0.093546	1.025198
O52	O	1.856414	0.343546	1.275198
O53	O	0.977296	-0.406034	0.405836
O54	O	1.227296	-0.156034	0.655836
O55	O	1.477296	0.093966	0.905836
O56	O	1.727296	0.343966	1.155836
O57	O	1.212620	-0.324390	0.533260
O58	O	1.462620	-0.074390	0.783260
O59	O	1.712620	0.175610	1.033260
O60	O	1.962620	0.425610	1.283260
O61	O	1.212448	-0.533492	0.324148
O62	O	1.462448	-0.283492	0.574148
O63	O	1.712448	-0.033492	0.824148
O64	O	1.962448	0.216508	1.074148
O65	O	1.106316	-0.525419	0.406227
O66	O	1.356316	-0.275419	0.656227
O67	O	1.606316	-0.025419	0.906227
O68	O	1.856316	0.224581	1.156227
C69	C	0.951359	-0.363603	0.363414
C70	C	1.201359	-0.113603	0.613414
C71	C	1.451359	0.136397	0.863414
C72	C	1.701359	0.386397	1.113414
C73	C	0.859075	-0.359823	0.359649
C74	C	1.109075	-0.109823	0.609649
C75	C	1.359075	0.140177	0.859649
C76	C	1.609075	0.390177	1.109649
C77	C	1.158156	-0.554936	0.364057
C78	C	1.408156	-0.304936	0.614057
C79	C	1.658156	-0.054936	0.864057
C80	C	1.908156	0.195064	1.114057
C81	C	1.154417	-0.632995	0.360576
C82	C	1.404417	-0.382995	0.610576
C83	C	1.654417	-0.132995	0.860576
C84	C	1.904417	0.117005	1.110576
C85	C	0.644870	-0.392082	0.391789
C86	C	0.894870	-0.142082	0.641789
C87	C	1.144870	0.107918	0.891789
C88	C	1.394870	0.357918	1.141789
C89	C	0.690116	-0.352927	0.352772
C90	C	0.940116	-0.102927	0.602772
C91	C	1.190116	0.147073	0.852772
C92	C	1.440116	0.397073	1.102772
C93	C	0.784133	-0.356765	0.356599
C94	C	1.034133	-0.106765	0.606599
C95	C	1.284133	0.143235	0.856599
C96	C	1.534133	0.393235	1.106599
C97	C	0.550844	-0.388245	0.387963
C98	C	0.800844	-0.138245	0.637963
C99	C	1.050844	0.111755	0.887963
C100	C	1.300844	0.361755	1.137963
C101	C	1.203555	-0.669770	0.406063
C102	C	1.453555	-0.419770	0.656063
C103	C	1.703555	-0.169770	0.906063
C104	C	1.953555	0.080230	1.156063
C105	C	1.200039	-0.743114	0.402794
C106	C	1.450039	-0.493114	0.652794
C107	C	1.700039	-0.243114	0.902794
C108	C	1.950039	0.006886	1.152794
C109	C	1.147389	-0.779683	0.354035
C110	C	1.397389	-0.529683	0.604035
C111	C	1.647389	-0.279683	0.854035
C112	C	1.897389	-0.029683	1.104035
C113	C	1.098246	-0.742903	0.308546
C114	C	1.348246	-0.492903	0.558546
C115	C	1.598246	-0.242903	0.808546
C116	C	1.848246	0.007097	1.058546
C117	C	1.101758	-0.669560	0.311819
C118	C	1.351758	-0.419560	0.561819
C119	C	1.601758	-0.169560	0.811819
C120	C	1.851758	0.080440	1.061819
C121	C	1.134233	-1.001127	0.341798
C122	C	1.384233	-0.751127	0.591798
C123	C	1.634233	-0.501127	0.841798
C124	C	1.884233	-0.251127	1.091798
C125	C	1.130726	-1.074475	0.338527
C126	C	1.380726	-0.824475	0.588527
C127	C	1.630726	-0.574475	0.838527
C128	C	1.880726	-0.324475	1.088527
C129	C	1.232518	-1.074681	0.432776
C130	C	1.482518	-0.824681	0.682776
C131	C	1.732518	-0.574681	0.932776
C132	C	1.982518	-0.324681	1.182776
C133	C	1.236030	-1.001337	0.436042
C134	C	1.486030	-0.751337	0.686042
C135	C	1.736030	-0.501337	0.936042
C136	C	1.986030	-0.251337	1.186042
C137	C	1.186884	-0.964563	0.390556
C138	C	1.436884	-0.714563	0.640556
C139	C	1.686884	-0.464563	0.890556
C140	C	1.936884	-0.214563	1.140556
C141	C	1.143795	-0.854653	0.350690
C142	C	1.393795	-0.604653	0.600690
C143	C	1.643795	-0.354653	0.850690
C144	C	1.893795	-0.104653	1.100690
C145	C	1.190473	-0.889594	0.393904
C146	C	1.440473	-0.639594	0.643904
C147	C	1.690473	-0.389594	0.893904
C148	C	1.940473	-0.139594	1.143904
C149	C	1.383624	-0.381387	0.381129
C150	C	1.633624	-0.131387	0.631129
C151	C	1.883624	0.118613	0.881129
C152	C	2.133624	0.368613	1.131129
C153	C	1.475906	-0.385184	0.384911
C154	C	1.725906	-0.135184	0.634911
C155	C	1.975906	0.114816	0.884911
C156	C	2.225906	0.364816	1.134911
C157	C	1.158257	-0.364245	0.555422
C158	C	1.408257	-0.114245	0.805422
C159	C	1.658257	0.135755	1.055422
C160	C	1.908257	0.385755	1.305422
C161	C	1.154501	-0.360736	0.633477
C162	C	1.404501	-0.110736	0.883477
C163	C	1.654501	0.139264	1.133477
C164	C	1.904501	0.389264	1.383477
C165	C	1.176041	-0.189306	0.380500
C166	C	1.426041	0.060694	0.630500
C167	C	1.676041	0.310694	0.880500
C168	C	1.926041	0.560694	1.130500
C169	C	1.179864	-0.111250	0.384014
C170	C	1.429864	0.138750	0.634014
C171	C	1.679864	0.388750	0.884014
C172	C	1.929864	0.638750	1.134014
C173	C	1.175899	-0.380630	0.189803
C174	C	1.425899	-0.130630	0.439803
C175	C	1.675899	0.119370	0.689803
C176	C	1.925899	0.369370	0.939803
C177	C	1.179825	-0.383947	0.111763
C178	C	1.429825	-0.133947	0.361763
C179	C	1.679825	0.116053	0.611763
C180	C	1.929825	0.366053	0.861763
C181	C	1.203629	-0.406181	0.670305
C182	C	1.453629	-0.156181	0.920305
C183	C	1.703629	0.093819	1.170305
C184	C	1.953629	0.343819	1.420305
C185	C	1.200101	-0.402876	0.743647
C186	C	1.450101	-0.152876	0.993647
C187	C	1.700101	0.097124	1.243647
C188	C	1.950101	0.347124	1.493647
C189	C	1.147439	-0.354129	0.780159
C190	C	1.397439	-0.104129	1.030159
C191	C	1.647439	0.145871	1.280159
C192	C	1.897439	0.395871	1.530159
C193	C	1.098309	-0.308679	0.743327
C194	C	1.348309	-0.058679	0.993327
C195	C	1.598309	0.191321	1.243327
C196	C	1.848309	0.441321	1.493327
C197	C	1.101843	-0.311981	0.669987
C198	C	1.351843	-0.061981	0.919987
C199	C	1.601843	0.188019	1.169987
C200	C	1.851843	0.438019	1.419987
C201	C	1.134229	-0.341799	1.001591
C202	C	1.384229	-0.091799	1.251591
C203	C	1.634229	0.158201	1.501591
C204	C	1.884229	0.408201	1.751591
C205	C	1.130697	-0.338502	1.074936
C206	C	1.380697	-0.088502	1.324936
C207	C	1.630697	0.161498	1.574936
C208	C	1.880697	0.411498	1.824936
C209	C	1.232490	-0.432698	1.075251
C210	C	1.482490	-0.182698	1.325251
C211	C	1.732490	0.067302	1.575251
C212	C	1.982490	0.317302	1.825251
C213	C	1.236015	-0.435999	1.001909
C214	C	1.486015	-0.185999	1.251909
C215	C	1.736015	0.064001	1.501909
C216	C	1.986015	0.314001	1.751909
C217	C	1.186889	-0.390547	0.965083
C218	C	1.436889	-0.140547	1.215083
C219	C	1.686889	0.109453	1.465083
C220	C	1.936889	0.359453	1.715083
C221	C	1.143830	-0.350751	0.855126
C222	C	1.393830	-0.100751	1.105126
C223	C	1.643830	0.149249	1.355126
C224	C	1.893830	0.399249	1.605126
C225	C	1.190503	-0.393922	0.890118
C226	C	1.440503	-0.143922	1.140118
C227	C	1.690503	0.106078	1.390118
C228	C	1.940503	0.356078	1.640118
H229	H	0.658242	-0.316523	0.316494
H230	H	0.908242	-0.066523	0.566494
H231	H	1.158242	0.183477	0.816494
H232	H	1.408242	0.433477	1.066494
Cl233	Cl	1.269751	-0.623805	0.467360
Cl234	Cl	1.519751	-0.373805	0.717360
Cl235	Cl	1.769751	-0.123805	0.967360
Cl236	Cl	2.019751	0.126195	1.217360
Cl237	Cl	1.261803	-0.789341	0.459988
Cl238	Cl	1.511803	-0.539341	0.709988
Cl239	Cl	1.761803	-0.289341	0.959988
Cl240	Cl	2.011803	-0.039341	1.209988
Cl241	Cl	1.077626	-0.289472	0.901033
Cl242	Cl	1.327626	-0.039472	1.151033
Cl243	Cl	1.577626	0.210528	1.401033
Cl244	Cl	1.827626	0.460528	1.651033
Cl245	Cl	1.072466	-0.284661	0.955305
Cl246	Cl	1.322466	-0.034661	1.205305
Cl247	Cl	1.572466	0.215339	1.455305
Cl248	Cl	1.822466	0.465339	1.705305
Cl249	Cl	0.694078	-0.448291	0.447788
Cl250	Cl	0.944078	-0.198291	0.697788
Cl251	Cl	1.194078	0.051709	0.947788
Cl252	Cl	1.444078	0.301709	1.197788
H253	H	1.278902	-0.971564	0.475745
H254	H	1.528902	-0.721564	0.725745
H255	H	1.778902	-0.471564	0.975745
H256	H	2.028902	-0.221564	1.225745
Cl257	Cl	1.256708	-0.455199	0.844216
Cl258	Cl	1.506708	-0.205199	1.094216
Cl259	Cl	1.756708	0.044801	1.344216
Cl260	Cl	2.006708	0.294801	1.594216
H261	H	1.272529	-1.104630	0.469809
H262	H	1.522529	-0.854630	0.719809
H263	H	1.772529	-0.604630	0.969809
H264	H	2.022529	-0.354630	1.219809
Cl265	Cl	1.064536	-1.120447	0.277223
Cl266	Cl	1.314536	-0.870447	0.527223
Cl267	Cl	1.564536	-0.620447	0.777223
Cl268	Cl	1.814536	-0.370447	1.027223
H269	H	1.055435	-0.268985	0.773061
H270	H	1.305435	-0.018985	1.023061
H271	H	1.555435	0.231015	1.273061
H272	H	1.805435	0.481015	1.523061
H273	H	1.094218	-0.971192	0.304761
H274	H	1.344218	-0.721192	0.554761
H275	H	1.594218	-0.471192	0.804761
H276	H	1.844218	-0.221192	1.054761
H277	H	1.100930	-0.884435	0.310989
H278	H	1.350930	-0.634435	0.560989
H279	H	1.600930	-0.384435	0.810989
H280	H	1.850930	-0.134435	1.060989
H281	H	1.233338	-0.859818	0.433606
H282	H	1.483338	-0.609818	0.683606
H283	H	1.733338	-0.359818	0.933606
H284	H	1.983338	-0.109818	1.183606
H285	H	1.055373	-0.772683	0.268848
H286	H	1.305373	-0.522683	0.518848
H287	H	1.555373	-0.272683	0.768848
H288	H	1.805373	-0.022683	1.018848
Cl289	Cl	1.039981	-0.623329	0.254635
Cl290	Cl	1.289981	-0.373329	0.504635
Cl291	Cl	1.539981	-0.123329	0.754635
Cl292	Cl	1.789981	0.126671	1.004635
Cl293	Cl	1.040082	-0.254846	0.623689
Cl294	Cl	1.290082	-0.004846	0.873689
Cl295	Cl	1.540082	0.245154	1.123689
Cl296	Cl	1.790082	0.495154	1.373689
Cl297	Cl	1.269832	-0.467470	0.624410
Cl298	Cl	1.519832	-0.217470	0.874410
Cl299	Cl	1.769832	0.032530	1.124410
Cl300	Cl	2.019832	0.282530	1.374410
H301	H	1.240107	-0.439882	0.773628
H302	H	1.490107	-0.189882	1.023628
H303	H	1.740107	0.060118	1.273628
H304	H	1.990107	0.310118	1.523628
Cl305	Cl	1.302224	-0.497282	0.956013
Cl306	Cl	1.552224	-0.247282	1.206013
Cl307	Cl	1.802224	0.002718	1.456013
Cl308	Cl	2.052224	0.252718	1.706013
Cl309	Cl	1.294248	-0.489832	1.121551
Cl310	Cl	1.544248	-0.239832	1.371551
Cl311	Cl	1.794248	0.010168	1.621551
Cl312	Cl	2.044248	0.260168	1.871551
H313	H	1.087816	-0.298801	1.104663
H314	H	1.337816	-0.048801	1.354663
H315	H	1.587816	0.201199	1.604663
H316	H	1.837816	0.451199	1.854663
