data_functionalizedCrystal
_audit_creation_method	'MofGen! by Chris Wilmer'
_symmetry_space_group_name_H-M	'P1'
_symmetry_Int_Tables_number	1
_symmetry_cell_setting	triclinic
loop_
_symmetry_equiv_pos_as_xyz
  x,y,z
_cell_length_a	18.215407
_cell_length_b	16.625545
_cell_length_c	18.215399
_cell_angle_alpha	89.973113
_cell_angle_beta	89.982632
_cell_angle_gamma	90.023001
loop_
_atom_site_label
_atom_site_type_symbol
_atom_site_fract_x
_atom_site_fract_y
_atom_site_fract_z
Zn1	Zn	1.125068	-0.321065	-0.416073
Zn2	Zn	1.625068	0.178935	0.083927
Zn3	Zn	1.124975	-0.455905	-0.293009
Zn4	Zn	1.624975	0.044095	0.206991
Zn5	Zn	1.002001	-0.321084	-0.293026
Zn6	Zn	1.502001	0.178916	0.206974
Zn7	Zn	1.001965	-0.455853	-0.416039
Zn8	Zn	1.501965	0.044147	0.083961
O9	O	1.063503	-0.388477	-0.354537
O10	O	1.563503	0.111523	0.145463
O11	O	1.228040	-0.338965	-0.399755
O12	O	1.728040	0.161035	0.100245
O13	O	1.108639	-0.438051	-0.190027
O14	O	1.608639	0.061949	0.309973
O15	O	1.018380	-0.208249	-0.309369
O16	O	1.518380	0.291751	0.190631
O17	O	1.227972	-0.438032	-0.309341
O18	O	1.727972	0.061968	0.190659
O19	O	1.108797	-0.208235	-0.399772
O20	O	1.608797	0.291765	0.100228
O21	O	1.018290	-0.338998	-0.190039
O22	O	1.518290	0.161002	0.309961
O23	O	0.899012	-0.338948	-0.309336
O24	O	1.399012	0.161052	0.190664
O25	O	1.018319	-0.437943	-0.519028
O26	O	1.518319	0.062057	-0.019028
O27	O	0.898986	-0.437962	-0.399714
O28	O	1.398986	0.062038	0.100286
O29	O	1.108763	-0.338915	-0.519053
O30	O	1.608763	0.161085	-0.019053
O31	O	1.108604	-0.568731	-0.309308
O32	O	1.608604	-0.068731	0.190692
O33	O	1.018229	-0.568693	-0.399698
O34	O	1.518229	-0.068693	0.100302
C35	C	0.872296	-0.388452	-0.354524
C36	C	1.372296	0.111548	0.145476
C37	C	0.790497	-0.388461	-0.354536
C38	C	1.290497	0.111539	0.145464
C39	C	0.602338	-0.336983	-0.401689
C40	C	1.102338	0.163017	0.098311
C41	C	0.525479	-0.336990	-0.401691
C42	C	1.025479	0.163010	0.098309
C43	C	0.525419	-0.439993	-0.307397
C44	C	1.025419	0.060007	0.192603
C45	C	0.602276	-0.439982	-0.307392
C46	C	1.102276	0.060018	0.192608
C47	C	0.640734	-0.388478	-0.354542
C48	C	1.140734	0.111522	0.145458
C49	C	0.487018	-0.388496	-0.354550
C50	C	0.987018	0.111504	0.145450
C51	C	0.403684	-0.388504	-0.354552
C52	C	0.903684	0.111496	0.145448
C53	C	0.724073	-0.388469	-0.354539
C54	C	1.224073	0.111531	0.145461
C55	C	1.063423	-0.597968	-0.354513
C56	C	1.563423	-0.097968	0.145487
C57	C	1.063456	-0.687589	-0.354528
C58	C	1.563456	-0.187589	0.145472
C59	C	1.063484	-0.760371	-0.354543
C60	C	1.563484	-0.260371	0.145457
C61	C	1.063527	-0.851680	-0.354559
C62	C	1.563527	-0.351680	0.145441
C63	C	1.063565	-0.924456	-0.354568
C64	C	1.563565	-0.424456	0.145432
C65	C	1.063607	-1.015770	-0.354583
C66	C	1.563607	-0.515770	0.145417
C67	C	1.255455	-0.388502	-0.354550
C68	C	1.755455	0.111498	0.145450
C69	C	1.337254	-0.388513	-0.354556
C70	C	1.837254	0.111487	0.145444
C71	C	1.063547	-0.388421	-0.546490
C72	C	1.563547	0.111579	-0.046490
C73	C	1.063567	-0.388398	-0.628289
C74	C	1.563567	0.111602	-0.128289
C75	C	1.063603	-0.178168	-0.354576
C76	C	1.563603	0.321832	0.145424
C77	C	1.063646	-0.088547	-0.354593
C78	C	1.563646	0.411453	0.145407
C79	C	1.110677	-0.336785	-0.816497
C80	C	1.610677	0.163215	-0.316497
C81	C	1.110686	-0.336762	-0.893355
C82	C	1.610686	0.163238	-0.393355
C83	C	1.016508	-0.439885	-0.893318
C84	C	1.516508	0.060115	-0.393318
C85	C	1.016496	-0.439904	-0.816461
C86	C	1.516496	0.060096	-0.316461
C87	C	1.063585	-0.388355	-0.778052
C88	C	1.563585	0.111645	-0.278052
C89	C	1.063606	-0.388313	-0.931768
C90	C	1.563606	0.111687	-0.431768
C91	C	1.063615	-0.388288	-1.015102
C92	C	1.563615	0.111712	-0.515102
C93	C	1.063575	-0.388379	-0.694713
C94	C	1.563575	0.111621	-0.194713
C95	C	1.063500	-0.388474	-0.163330
C96	C	1.563500	0.111526	0.336670
C97	C	1.063624	-0.388271	-0.081532
C98	C	1.563624	0.111729	0.418468
H99	H	0.494098	-0.481927	-0.269010
H100	H	0.994098	0.018073	0.230990
H101	H	1.149032	-0.294767	-0.924654
H102	H	1.649032	0.205233	-0.424654
O103	O	0.639612	-0.489893	-0.261513
O104	O	1.139612	0.010107	0.238487
C105	C	0.726385	-0.500589	-0.162164
C106	C	1.226385	-0.000589	0.337836
C107	C	0.684135	-0.443979	-0.214062
C108	C	1.184135	0.056021	0.285938
H109	H	0.762403	-0.463491	-0.123797
H110	H	1.262403	0.036509	0.376203
H111	H	0.685731	-0.537393	-0.128416
H112	H	1.185731	-0.037393	0.371584
H113	H	0.762338	-0.542804	-0.195900
H114	H	1.262338	-0.042804	0.304100
H115	H	0.648181	-0.401716	-0.180383
H116	H	1.148181	0.098284	0.319617
H117	H	0.724828	-0.407231	-0.247813
H118	H	1.224828	0.092769	0.252187
H119	H	1.149018	-0.294809	-0.785226
H120	H	1.649018	0.205191	-0.285226
O121	O	0.488102	-0.287083	-0.447529
O122	O	0.988102	0.212917	0.052471
C123	C	0.401403	-0.276390	-0.546944
C124	C	0.901403	0.223610	-0.046944
C125	C	0.443673	-0.333002	-0.495065
C126	C	0.943673	0.166998	0.004935
H127	H	0.365484	-0.313493	-0.585399
H128	H	0.865484	0.186507	-0.085399
H129	H	0.365370	-0.234196	-0.513268
H130	H	0.865370	0.265804	-0.013268
H131	H	0.442109	-0.239562	-0.580605
H132	H	0.942109	0.260438	-0.080605
H133	H	0.403020	-0.369883	-0.461392
H134	H	0.903020	0.130117	0.038608
H135	H	0.479717	-0.375143	-0.528782
H136	H	0.979717	0.124857	-0.028782
O137	O	0.970841	-0.489935	-0.930744
O138	O	1.470841	0.010065	-0.430744
C139	C	0.929089	-0.535577	-1.049130
C140	C	1.429089	-0.035577	-0.549130
C141	C	0.980856	-0.478865	-1.006840
C142	C	1.480856	0.021135	-0.506840
H143	H	0.937158	-0.526635	-1.110661
H144	H	1.437158	-0.026635	-0.610661
H145	H	0.941982	-0.600615	-1.034060
H146	H	1.441982	-0.100615	-0.534060
H147	H	0.869760	-0.521423	-1.033969
H148	H	1.369760	-0.021423	-0.533969
H149	H	1.040203	-0.492946	-1.021978
H150	H	1.540203	0.007054	-0.521978
H151	H	0.967900	-0.413844	-1.021914
H152	H	1.467900	0.086156	-0.521914
O153	O	0.970725	-0.490080	-0.779225
O154	O	1.470725	0.009920	-0.279225
C155	C	0.877284	-0.592329	-0.787292
C156	C	1.377284	-0.092329	-0.287292
C157	C	0.929092	-0.535566	-0.829553
C158	C	1.429092	-0.035566	-0.329553
H159	H	0.843600	-0.629108	-0.827964
H160	H	1.343600	-0.129108	-0.327964
H161	H	0.911013	-0.634554	-0.751324
H162	H	1.411013	-0.134554	-0.251324
H163	H	0.838847	-0.555301	-0.751292
H164	H	1.338847	-0.055301	-0.251292
H165	H	0.967540	-0.572530	-0.865593
H166	H	1.467540	-0.072530	-0.365593
H167	H	0.895318	-0.493340	-0.865475
H168	H	1.395318	0.006660	-0.365475
O169	O	0.639810	-0.287025	-0.447460
O170	O	1.139810	0.212975	0.052540
C171	C	0.758238	-0.241318	-0.489210
C172	C	1.258238	0.258682	0.010790
C173	C	0.715896	-0.297953	-0.437351
C174	C	1.215896	0.202047	0.062649
H175	H	0.819761	-0.250121	-0.481044
H176	H	1.319761	0.249879	0.018956
H177	H	0.743199	-0.255559	-0.548547
H178	H	1.243199	0.244441	-0.048547
H179	H	0.743092	-0.176296	-0.476395
H180	H	1.243092	0.323704	0.023605
H181	H	0.731019	-0.362993	-0.450100
H182	H	1.231019	0.137007	0.049900
H183	H	0.730938	-0.283642	-0.378029
H184	H	1.230938	0.216358	0.121971
