data_functionalizedCrystal
_audit_creation_method	'MofGen! by Chris Wilmer'
_symmetry_space_group_name_H-M	'P1'
_symmetry_Int_Tables_number	1
_symmetry_cell_setting	triclinic
loop_
_symmetry_equiv_pos_as_xyz
  x,y,z
_cell_length_a	12.759401
_cell_length_b	12.759399
_cell_length_c	18.215399
_cell_angle_alpha	90.024962
_cell_angle_beta	90.017510
_cell_angle_gamma	90.013324
loop_
_atom_site_label
_atom_site_type_symbol
_atom_site_fract_x
_atom_site_fract_y
_atom_site_fract_z
Zn1	Zn	-1.606232	0.418327	-0.416086
Zn2	Zn	-1.606131	0.594025	-0.293026
Zn3	Zn	-1.430540	0.418355	-0.293038
Zn4	Zn	-1.430521	0.593959	-0.416056
O5	O	-1.518356	0.506167	-0.354551
O6	O	-1.753239	0.441650	-0.399769
O7	O	-1.582804	0.570761	-0.190043
O8	O	-1.453896	0.271330	-0.309378
O9	O	-1.753165	0.570734	-0.309357
O10	O	-1.582976	0.271310	-0.399781
O11	O	-1.453798	0.441697	-0.190052
O12	O	-1.283516	0.441633	-0.309349
O13	O	-1.453864	0.570622	-0.519044
O14	O	-1.283502	0.570649	-0.399730
O15	O	-1.582958	0.441586	-0.519066
O16	O	-1.582786	0.741037	-0.309328
O17	O	-1.453766	0.740989	-0.399718
C18	C	-1.245388	0.506138	-0.354538
C19	C	-1.128612	0.506151	-0.354550
C20	C	-1.073789	0.439056	-0.401699
C21	C	-0.964065	0.439063	-0.401702
C22	C	-0.963996	0.573268	-0.307406
C23	C	-1.073718	0.573255	-0.307399
C24	C	-1.518291	0.779134	-0.354534
C25	C	-1.518360	0.895911	-0.354552
C26	C	-1.518420	0.506094	-0.546504
C27	C	-1.518447	0.506063	-0.628303
C28	C	-0.792389	0.506186	-0.354562
C29	C	-0.909166	0.506170	-0.354560
C30	C	-1.518449	0.232133	-0.354584
C31	C	-1.518489	0.115357	-0.354598
C32	C	-1.585617	0.950763	-0.307540
C33	C	-1.585685	1.060487	-0.307564
C34	C	-1.451229	1.060497	-0.401616
C35	C	-1.451167	0.950775	-0.401594
C36	C	-1.585690	0.438811	-0.816510
C37	C	-1.585703	0.438781	-0.893369
C38	C	-1.451278	0.573153	-0.893334
C39	C	-1.451261	0.573177	-0.816477
C40	C	-1.518473	0.506008	-0.778067
C41	C	-1.518503	0.505953	-0.931783
C42	C	-1.518516	0.505920	-1.015117
C43	C	-1.518459	0.506039	-0.694728
C44	C	-1.518352	0.506163	-0.163345
C45	C	-1.518529	0.505898	-0.081546
H46	H	-1.118356	0.627893	-0.269000
H47	H	-0.919288	0.627902	-0.269018
H48	H	-1.640416	0.384115	-0.785238
C49	C	-1.659652	0.364878	-0.935656
H50	H	-1.650034	0.374475	-0.986931
H51	H	-1.730231	0.380273	-0.923064
H52	H	-1.644298	0.294284	-0.923070
C53	C	-1.377360	0.647042	-0.935588
H54	H	-1.387004	0.637412	-0.986868
H55	H	-1.306770	0.631669	-0.922989
H56	H	-1.392722	0.717640	-0.922981
C57	C	-1.377325	0.647104	-0.774187
H58	H	-1.337311	0.687116	-0.808069
H59	H	-1.331554	0.606925	-0.744203
H60	H	-1.417507	0.692894	-0.744205
H61	H	-1.640331	0.906095	-0.269236
H62	H	-1.118480	0.384412	-0.440090
H63	H	-0.919433	0.384426	-0.440095
C64	C	-1.659663	1.120820	-0.255847
H65	H	-1.699663	1.072426	-0.227826
H66	H	-1.705445	1.163557	-0.284032
H67	H	-1.619514	1.163686	-0.223765
H68	H	-1.396521	1.105181	-0.439915
H69	H	-1.396398	0.906111	-0.439881
