data_functionalizedCrystal
_audit_creation_method	'MofGen! by Chris Wilmer'
_symmetry_space_group_name_H-M	'P1'
_symmetry_Int_Tables_number	1
_symmetry_cell_setting	triclinic
loop_
_symmetry_equiv_pos_as_xyz
  x,y,z
_cell_length_a	21.395362
_cell_length_b	29.839131
_cell_length_c	29.839126
_cell_angle_alpha	90.024152
_cell_angle_beta	90.039304
_cell_angle_gamma	90.057297
loop_
_atom_site_label
_atom_site_type_symbol
_atom_site_fract_x
_atom_site_fract_y
_atom_site_fract_z
Zn1	Zn	0.957784	-0.178697	0.254241
Zn2	Zn	0.957676	-0.253818	0.179111
Zn3	Zn	0.853008	-0.178723	0.179098
Zn4	Zn	0.852949	-0.253822	0.254187
O5	O	0.905354	-0.216265	0.216659
O6	O	1.045448	-0.188650	0.244303
O7	O	0.943770	-0.243866	0.116242
O8	O	0.866977	-0.115853	0.189083
O9	O	1.045368	-0.243840	0.189105
O10	O	0.943955	-0.115834	0.244290
O11	O	0.866871	-0.188694	0.116232
O12	O	0.765322	-0.188698	0.189030
O13	O	0.866876	-0.243847	0.317061
O14	O	0.765279	-0.243873	0.244198
O15	O	0.943898	-0.188654	0.317101
O16	O	0.943713	-0.316686	0.189053
O17	O	0.866771	-0.316689	0.244210
C18	C	0.742566	-0.216289	0.216607
C19	C	0.672925	-0.216310	0.216595
C20	C	0.640206	-0.245077	0.245278
C21	C	0.574770	-0.245066	0.245298
C22	C	0.542057	-0.216293	0.216627
C23	C	0.574784	-0.187520	0.187943
C24	C	0.640218	-0.187528	0.187927
C25	C	0.438338	-0.212676	0.176184
C26	C	0.372905	-0.212671	0.176199
C27	C	0.340236	-0.216263	0.216677
C28	C	0.373009	-0.219871	0.257141
C29	C	0.438443	-0.219879	0.257125
C30	C	0.471104	-0.216280	0.216642
C31	C	0.236564	-0.245020	0.245384
C32	C	0.171128	-0.245006	0.245405
C33	C	0.171143	-0.187462	0.188045
C34	C	0.236578	-0.187474	0.188028
C35	C	0.269285	-0.216255	0.216697
C36	C	0.905241	-0.332988	0.216637
C37	C	0.905250	-0.382922	0.216642
C38	C	0.945491	-0.692551	0.187980
C39	C	0.945568	-0.880224	0.187998
O40	O	0.979693	-0.904477	0.163611
N41	N	0.905484	-0.903707	0.216693
C42	C	0.865381	-0.880269	0.245388
O43	O	0.831293	-0.904549	0.269799
C44	C	0.865307	-0.692597	0.245372
C45	C	0.905389	-0.669116	0.216672
C46	C	0.985570	-0.669071	0.159283
C47	C	0.985548	-0.622155	0.159277
C48	C	0.945446	-0.598720	0.187969
C49	C	0.905367	-0.622201	0.216666
C50	C	0.825207	-0.669159	0.274069
C51	C	0.825193	-0.622238	0.274064
C52	C	0.865276	-0.598758	0.245363
C53	C	0.865243	-0.551850	0.245352
N54	N	0.905327	-0.528368	0.216657
C55	C	0.945429	-0.551803	0.187965
C56	C	0.865421	-0.978799	0.245393
C57	C	0.865439	-1.025717	0.245397
C58	C	0.945627	-1.025670	0.188007
C59	C	0.945606	-0.978751	0.188002
C60	C	0.905505	-0.955317	0.216698
C61	C	0.945379	-0.453277	0.187955
C62	C	0.945352	-0.406357	0.187951
C63	C	0.865166	-0.406409	0.245342
C64	C	0.865190	-0.453325	0.245345
C65	C	0.905302	-0.476757	0.216650
O66	O	0.831141	-0.527569	0.269730
O67	O	0.979521	-0.527515	0.163565
C68	C	0.945513	-0.739467	0.187986
C69	C	0.905433	-0.762947	0.216684
C70	C	0.865332	-0.739512	0.245376
C71	C	0.905451	-0.809865	0.216687
C72	C	0.945553	-0.833300	0.187995
C73	C	0.985637	-0.809817	0.159300
C74	C	0.985615	-0.762902	0.159294
C75	C	0.825248	-0.762995	0.274071
C76	C	0.825273	-0.809910	0.274074
C77	C	0.865374	-0.833345	0.245382
C78	C	1.068777	-0.216242	0.216712
C79	C	1.138419	-0.216232	0.216734
C80	C	0.905393	-0.216248	0.333837
C81	C	0.905409	-0.216241	0.383772
C82	C	0.905485	-0.099087	0.216691
C83	C	0.905540	-0.049152	0.216705
C84	C	0.905351	-0.216250	0.099937
C85	C	0.905456	-0.216131	0.050002
C86	C	0.865381	-0.187468	0.693413
C87	C	0.865398	-0.187437	0.881086
O88	O	0.831333	-0.163018	0.905350
N89	N	0.905439	-0.216156	0.904557
C90	C	0.945475	-0.244888	0.881107
O91	O	0.979528	-0.269318	0.905376
C92	C	0.945454	-0.244921	0.693435
C93	C	0.905415	-0.216196	0.669966
C94	C	0.825344	-0.158746	0.669945
C95	C	0.825343	-0.158752	0.623029
C96	C	0.865377	-0.187481	0.599582
C97	C	0.905413	-0.216203	0.623051
C98	C	0.985487	-0.273654	0.669985
C99	C	0.985477	-0.273661	0.623064
C100	C	0.945438	-0.244936	0.599596
C101	C	0.945446	-0.244937	0.552688
N102	N	0.905406	-0.216218	0.529217
C103	C	0.865371	-0.187489	0.552665
C104	C	0.945485	-0.244868	0.979638
C105	C	0.945491	-0.244859	1.026555
C106	C	0.865413	-0.187408	1.026532
C107	C	0.865410	-0.187415	0.979613
C108	C	0.905444	-0.216148	0.956167
C109	C	0.865371	-0.187505	0.454139
C110	C	0.865375	-0.187512	0.407219
C111	C	0.945450	-0.244964	0.407247
C112	C	0.945449	-0.244955	0.454162
C113	C	0.905404	-0.216224	0.477607
O114	O	0.979489	-0.269347	0.528396
O115	O	0.831313	-0.163070	0.528387
C116	C	0.865382	-0.187461	0.740329
C117	C	0.905418	-0.216184	0.763797
C118	C	0.945453	-0.244912	0.740350
C119	C	0.905425	-0.216175	0.810715
C120	C	0.865390	-0.187446	0.834162
C121	C	0.825349	-0.158727	0.810691
C122	C	0.825348	-0.158733	0.763776
C123	C	0.985494	-0.273632	0.763821
C124	C	0.985493	-0.273623	0.810736
C125	C	0.945458	-0.244894	0.834183
H126	H	0.346411	-0.222795	0.290102
C127	C	0.135169	-0.155809	0.156506
C128	C	0.090272	-0.120558	0.176046
C129	C	0.054295	-0.088902	0.144506
C130	C	0.063216	-0.092498	0.093426
C131	C	0.108115	-0.127751	0.073883
C132	C	0.144091	-0.159406	0.105423
H133	H	0.083666	-0.117895	0.213861
H134	H	0.021058	-0.062806	0.158974
H135	H	0.036585	-0.069065	0.070079
H136	H	0.114721	-0.130414	0.036068
H137	H	0.177329	-0.185502	0.090955
C138	C	0.336861	-0.208706	0.131689
C139	C	0.345881	-0.167182	0.101746
C140	C	0.309841	-0.163218	0.057235
C141	C	0.264779	-0.200777	0.042665
C142	C	0.255757	-0.242304	0.072608
C143	C	0.291798	-0.246268	0.117120
H144	H	0.379240	-0.139376	0.112531
H145	H	0.316520	-0.132477	0.035069
H146	H	0.238100	-0.197843	0.009715
H147	H	0.222398	-0.270110	0.061824
H148	H	0.285118	-0.277009	0.139286
H149	H	0.792754	-0.135333	0.829790
H150	H	0.464931	-0.209749	0.143219
H151	H	0.832513	-0.387321	0.268701
C152	C	0.135134	-0.276652	0.276959
C153	C	0.171114	-0.308308	0.308491
C154	C	0.135119	-0.339954	0.340046
C155	C	0.063144	-0.339943	0.340069
C156	C	0.027160	-0.308285	0.308535
C157	C	0.063155	-0.276639	0.276980
H158	H	0.224398	-0.308318	0.308475
H159	H	0.161757	-0.363390	0.363389
H160	H	0.036498	-0.363369	0.363427
H161	H	-0.026124	-0.308275	0.308551
H162	H	0.036517	-0.253204	0.253637
H163	H	0.832765	-0.959722	0.268762
H164	H	0.978059	-0.268340	0.473271
H165	H	0.263196	-0.268454	0.268730
H166	H	0.792740	-0.135351	0.689031
C167	C	1.029544	-0.305249	0.695785
C168	C	1.024381	-0.356322	0.689310
C169	C	1.068448	-0.387917	0.715106
C170	C	1.117678	-0.368439	0.747377
C171	C	1.122843	-0.317363	0.753854
C172	C	1.078776	-0.285769	0.728058
H173	H	0.987936	-0.370743	0.665420
H174	H	1.064624	-0.425726	0.710311
H175	H	1.150299	-0.391827	0.766473
H176	H	1.159288	-0.302942	0.777744
H177	H	1.082600	-0.247959	0.732852
C178	C	0.989446	-0.380529	0.156380
C179	C	1.038606	-0.348216	0.175885
C180	C	1.082699	-0.322389	0.144316
C181	C	1.077631	-0.328876	0.093241
C182	C	1.028469	-0.361190	0.073733
C183	C	0.984376	-0.387017	0.105302
H184	H	1.042359	-0.343413	0.213697
H185	H	1.119092	-0.298468	0.158758
H186	H	1.110272	-0.309758	0.069872
H187	H	1.024716	-0.365993	0.035921
H188	H	0.947983	-0.410938	0.090860
C189	C	0.781130	-0.737219	0.305631
C190	C	0.808227	-0.704920	0.340927
C191	C	0.764104	-0.679146	0.372487
C192	C	0.692884	-0.685672	0.368752
C193	C	0.665783	-0.717973	0.333455
C194	C	0.709907	-0.743747	0.301895
H195	H	0.860952	-0.700088	0.343693
H196	H	0.784166	-0.655235	0.398617
H197	H	0.660221	-0.666592	0.392115
H198	H	0.613059	-0.722805	0.330689
H199	H	0.689845	-0.767658	0.275765
H200	H	1.018103	-0.297013	0.829840
C201	C	1.029647	-0.596333	0.127709
C202	C	1.024584	-0.602822	0.076634
C203	C	1.068688	-0.577004	0.045066
C204	C	1.117855	-0.544697	0.064573
C205	C	1.122921	-0.538207	0.115651
C206	C	1.078816	-0.564024	0.147219
H207	H	0.988185	-0.626739	0.062192
H208	H	1.064938	-0.581809	0.007255
H209	H	1.150504	-0.525585	0.041204
H210	H	1.159319	-0.514290	0.130093
H211	H	1.082567	-0.559220	0.185030
C212	C	0.538801	-0.155869	0.156404
C213	C	0.493900	-0.120622	0.175947
C214	C	0.457917	-0.088968	0.144410
C215	C	0.466836	-0.092561	0.093329
C216	C	0.511740	-0.127809	0.073784
C217	C	0.547722	-0.159463	0.105321
H218	H	0.487295	-0.117961	0.213762
H219	H	0.424676	-0.062875	0.158879
H220	H	0.440200	-0.069129	0.069983
H221	H	0.518344	-0.130470	0.035968
H222	H	0.580963	-0.185556	0.090852
C223	C	0.676212	-0.155885	0.156370
C224	C	0.667309	-0.104817	0.160129
C225	C	0.703304	-0.073175	0.128571
C226	C	0.748203	-0.092601	0.093253
C227	C	0.757108	-0.143672	0.089492
C228	C	0.721113	-0.175314	0.121051
H229	H	0.634071	-0.090434	0.186275
H230	H	0.696712	-0.035369	0.131355
H231	H	0.774849	-0.069178	0.069892
H232	H	0.790346	-0.158055	0.063346
H233	H	0.727705	-0.213120	0.118266
H234	H	0.832554	-0.472443	0.268716
H235	H	1.018229	-0.688147	0.135918
H236	H	0.792736	-0.135363	0.603926
C237	C	0.781078	-0.596461	0.305629
C238	C	0.709857	-0.602983	0.301900
C239	C	0.665741	-0.577207	0.333463
C240	C	0.692846	-0.544908	0.368756
C241	C	0.764071	-0.538384	0.372487
C242	C	0.808187	-0.564160	0.340923
H243	H	0.689789	-0.626894	0.275772
H244	H	0.613015	-0.582036	0.330701
H245	H	0.660188	-0.525826	0.392121
H246	H	0.784139	-0.514473	0.398614
H247	H	0.860912	-0.559331	0.343685
C248	C	1.029710	-0.737078	0.127726
C249	C	1.024643	-0.743567	0.076651
C250	C	1.068742	-0.717747	0.045081
C251	C	1.117909	-0.685438	0.064586
C252	C	1.122978	-0.678948	0.115663
C253	C	1.078879	-0.704768	0.147233
H254	H	0.988245	-0.767485	0.062210
H255	H	1.064990	-0.722552	0.007270
H256	H	1.150554	-0.666325	0.041216
H257	H	1.159376	-0.655030	0.130104
H258	H	1.082632	-0.699963	0.185044
H259	H	0.666832	-0.268513	0.268623
C260	C	1.029750	-0.835602	0.127740
C261	C	1.002642	-0.867905	0.092452
C262	C	1.046756	-0.893692	0.060895
C263	C	1.117978	-0.887176	0.064627
C264	C	1.145090	-0.854872	0.099916
C265	C	1.100976	-0.829084	0.131473
H266	H	0.949916	-0.872729	0.089688
H267	H	1.026686	-0.917606	0.034772
H268	H	1.150634	-0.906265	0.041267
H269	H	1.197816	-0.850047	0.102679
H270	H	1.121047	-0.805171	0.157596
C271	C	0.781178	-0.835735	0.305647
C272	C	0.709950	-0.829351	0.301921
C273	C	0.665861	-0.855173	0.333497
C274	C	0.693000	-0.887379	0.368798
C275	C	0.764231	-0.893765	0.372526
C276	C	0.808320	-0.867943	0.340950
H277	H	0.689857	-0.805509	0.275788
H278	H	0.613131	-0.850446	0.330737
H279	H	0.660363	-0.906495	0.392173
H280	H	0.784324	-0.917607	0.398659
H281	H	0.861050	-0.872670	0.343710
H282	H	0.832816	-0.164015	1.045630
C283	C	0.821327	-0.155915	0.381404
C284	C	0.777288	-0.124317	0.407200
C285	C	0.733241	-0.092722	0.381387
C286	C	0.733233	-0.092724	0.329779
C287	C	0.777274	-0.124323	0.303981
C288	C	0.821321	-0.155918	0.329794
H289	H	0.777292	-0.124314	0.445405
H290	H	0.700638	-0.069330	0.400485
H291	H	0.700627	-0.069335	0.310671
H292	H	0.777270	-0.124325	0.265775
H293	H	0.853924	-0.179310	0.310696
C294	C	0.821325	-0.155898	0.479924
C295	C	0.750094	-0.159571	0.473433
C296	C	0.706053	-0.127963	0.499218
C297	C	0.733242	-0.092681	0.531493
C298	C	0.804477	-0.089007	0.537985
C299	C	0.848519	-0.120615	0.512200
H300	H	0.729964	-0.185690	0.449540
H301	H	0.653320	-0.130683	0.494412
H302	H	0.700640	-0.069283	0.550581
H303	H	0.824608	-0.062888	0.561879
H304	H	0.901252	-0.117895	0.517006
C305	C	0.781301	-0.127137	0.737964
C306	C	0.732081	-0.146613	0.705684
C307	C	0.688031	-0.115017	0.679875
C308	C	0.693200	-0.063944	0.686348
C309	C	0.742422	-0.044465	0.718630
C310	C	0.786472	-0.076062	0.744438
H311	H	0.728253	-0.184423	0.700891
H312	H	0.651594	-0.129436	0.655978
H313	H	0.660592	-0.040554	0.667243
H314	H	0.746250	-0.006656	0.723422
H315	H	0.822909	-0.061642	0.768335
C316	C	0.821363	-0.155821	0.953800
C317	C	0.826533	-0.104747	0.960268
C318	C	0.782483	-0.073153	0.934457
C319	C	0.733262	-0.092631	0.902179
C320	C	0.728090	-0.143707	0.895710
C321	C	0.772140	-0.175302	0.921520
H322	H	0.862971	-0.090326	0.984163
H323	H	0.786312	-0.035343	0.939247
H324	H	0.700654	-0.069242	0.883073
H325	H	0.691652	-0.158128	0.871815
H326	H	0.768311	-0.213112	0.916731
C327	C	0.989536	-0.276473	0.953855
C328	C	1.060765	-0.272786	0.960350
C329	C	1.104821	-0.304390	0.934572
C330	C	1.077648	-0.339680	0.902299
C331	C	1.006415	-0.343369	0.895803
C332	C	0.962359	-0.311765	0.921581
H333	H	1.080883	-0.246661	0.984241
H334	H	1.157552	-0.301659	0.939381
H335	H	1.110261	-0.363075	0.883217
H336	H	0.986297	-0.369494	0.871911
H337	H	0.909628	-0.314496	0.916771
C338	C	1.029516	-0.305268	0.597272
C339	C	1.100748	-0.301593	0.603757
C340	C	1.144786	-0.333198	0.577965
C341	C	1.117593	-0.368478	0.545689
C342	C	1.046357	-0.372154	0.539203
C343	C	1.002319	-0.340548	0.564995
H344	H	1.120881	-0.275476	0.627651
H345	H	1.197520	-0.330477	0.582767
H346	H	1.150193	-0.391874	0.526597
H347	H	1.026224	-0.398271	0.515309
H348	H	0.949585	-0.343270	0.560193
H349	H	0.548125	-0.268492	0.268657
H350	H	0.465123	-0.222815	0.290072
H351	H	0.978043	-0.472350	0.164590
H352	H	0.263218	-0.164050	0.164670
H353	H	0.978245	-0.959636	0.164632
H354	H	0.978280	-1.044758	0.164645
H355	H	0.832794	-1.044831	0.268763
H356	H	0.792565	-0.688269	0.297438
H357	H	0.978102	-0.268245	1.045659
H358	H	0.978047	-0.268353	0.388148
H359	H	1.018093	-0.297028	0.744735
