data_functionalizedCrystal
_audit_creation_method	'MofGen! by Chris Wilmer'
_symmetry_space_group_name_H-M	'P1'
_symmetry_Int_Tables_number	1
_symmetry_cell_setting	triclinic
loop_
_symmetry_equiv_pos_as_xyz
  x,y,z
_cell_length_a	21.295420
_cell_length_b	21.295417
_cell_length_c	16.959455
_cell_angle_alpha	90.017994
_cell_angle_beta	90.002746
_cell_angle_gamma	90.025484
loop_
_atom_site_label
_atom_site_type_symbol
_atom_site_fract_x
_atom_site_fract_y
_atom_site_fract_z
Zn1	Zn	0.962223	-0.250768	0.446912
Zn2	Zn	1.295556	0.082565	0.780246
Zn3	Zn	1.628890	0.415899	1.113579
Zn4	Zn	0.962167	-0.356015	0.314725
Zn5	Zn	1.295500	-0.022682	0.648058
Zn6	Zn	1.628834	0.310652	0.981392
Zn7	Zn	0.856986	-0.250756	0.314747
Zn8	Zn	1.190320	0.082577	0.648080
Zn9	Zn	1.523653	0.415911	0.981414
Zn10	Zn	0.856917	-0.355996	0.446861
Zn11	Zn	1.190251	-0.022662	0.780194
Zn12	Zn	1.523584	0.310671	1.113527
O13	O	0.909573	-0.303384	0.380811
O14	O	1.242907	0.029950	0.714145
O15	O	1.576240	0.363283	1.047478
O16	O	1.050305	-0.264742	0.429390
O17	O	1.383638	0.068591	0.762723
O18	O	1.716972	0.401924	1.096056
O19	O	0.948220	-0.342055	0.204117
O20	O	1.281554	-0.008722	0.537450
O21	O	1.614887	0.324611	0.870784
O22	O	0.870999	-0.162668	0.332310
O23	O	1.204332	0.170665	0.665643
O24	O	1.537665	0.503999	0.998977
O25	O	1.050264	-0.342067	0.332272
O26	O	1.383597	-0.008734	0.665605
O27	O	1.716931	0.324600	0.998939
O28	O	0.948316	-0.162677	0.429411
O29	O	1.281649	0.170656	0.762744
O30	O	1.614982	0.503990	1.096078
O31	O	0.870944	-0.264722	0.204133
O32	O	1.204278	0.068611	0.537467
O33	O	1.537611	0.401945	0.870800
O34	O	0.768888	-0.264703	0.332260
O35	O	1.102221	0.068630	0.665593
O36	O	1.435555	0.401964	0.998927
O37	O	0.870881	-0.342034	0.557478
O38	O	1.204214	-0.008700	0.890812
O39	O	1.537547	0.324633	1.224145
O40	O	0.768837	-0.342022	0.429323
O41	O	1.102170	-0.008689	0.762657
O42	O	1.435504	0.324645	1.095990
O43	O	0.948248	-0.264724	0.557516
O44	O	1.281582	0.068610	0.890850
O45	O	1.614915	0.401943	1.224183
O46	O	0.948153	-0.444102	0.332222
O47	O	1.281486	-0.110768	0.665555
O48	O	1.614820	0.222565	0.998889
O49	O	0.870826	-0.444087	0.429302
O50	O	1.204160	-0.110754	0.762635
O51	O	1.537493	0.222579	1.095968
C52	C	0.746022	-0.303360	0.380789
C53	C	1.079355	0.029974	0.714122
C54	C	1.412689	0.363307	1.047456
C55	C	0.676054	-0.303364	0.380798
C56	C	1.009387	0.029969	0.714131
C57	C	1.342720	0.363302	1.047465
C58	C	0.176617	-0.263216	0.431474
C59	C	0.509950	0.070118	0.764808
C60	C	0.843283	0.403451	1.098141
C61	C	0.242359	-0.263211	0.431474
C62	C	0.575692	0.070122	0.764808
C63	C	0.909026	0.403456	1.098141
C64	C	0.275214	-0.303403	0.380830
C65	C	0.608548	0.029931	0.714163
C66	C	0.941881	0.363264	1.047496
C67	C	0.242322	-0.343614	0.330196
C68	C	0.575655	-0.010280	0.663529
C69	C	0.908988	0.323053	0.996862
C70	C	0.176580	-0.343622	0.330203
C71	C	0.509914	-0.010288	0.663536
C72	C	0.843247	0.323045	0.996869
N73	N	0.378425	-0.308136	0.311618
N74	N	0.711759	0.025197	0.644951
N75	N	1.045092	0.358531	0.978284
N76	N	0.440877	-0.308125	0.311613
N77	N	0.774210	0.025209	0.644947
N78	N	1.107543	0.358542	0.978280
C79	C	0.473289	-0.303382	0.380806
C80	C	0.806622	0.029951	0.714140
C81	C	1.139956	0.363285	1.047473
N82	N	0.440891	-0.298639	0.450006
N83	N	0.774224	0.034694	0.783339
N84	N	1.107557	0.368028	1.116672
N85	N	0.378433	-0.298647	0.450009
N86	N	0.711767	0.034686	0.783343
N87	N	1.045100	0.368020	1.116676
C88	C	0.346500	-0.303399	0.380817
C89	C	0.679833	0.029934	0.714150
C90	C	1.013166	0.363268	1.047483
C91	C	0.577459	-0.263172	0.431441
C92	C	0.910793	0.070162	0.764774
C93	C	1.244126	0.403495	1.098108
C94	C	0.643203	-0.263171	0.431442
C95	C	0.976536	0.070162	0.764776
C96	C	1.309870	0.403495	1.098109
C97	C	0.643164	-0.343571	0.330157
C98	C	0.976498	-0.010237	0.663490
C99	C	1.309831	0.323096	0.996823
C100	C	0.577422	-0.343574	0.330162
C101	C	0.910755	-0.010241	0.663496
C102	C	1.244089	0.323092	0.996829
C103	C	0.544573	-0.303371	0.380803
C104	C	0.877907	0.029962	0.714137
C105	C	1.211240	0.363295	1.047470
C106	C	0.909493	-0.466935	0.380771
C107	C	1.242827	-0.133602	0.714105
C108	C	1.576160	0.199731	1.047438
C109	C	0.909517	-0.536903	0.380781
C110	C	1.242850	-0.203570	0.714114
C111	C	1.576183	0.129763	1.047447
C112	C	0.949752	-0.569717	0.431377
C113	C	1.283086	-0.236384	0.764711
C114	C	1.616419	0.096949	1.098044
C115	C	0.949775	-0.635460	0.431397
C116	C	1.283108	-0.302127	0.764730
C117	C	1.616441	0.031207	1.098063
C118	C	0.909568	-0.668386	0.380805
C119	C	1.242901	-0.335052	0.714139
C120	C	1.576234	-0.001719	1.047472
C121	C	0.869324	-0.635564	0.330205
C122	C	1.202657	-0.302230	0.663538
C123	C	1.535991	0.031103	0.996872
C124	C	0.869298	-0.569823	0.330193
C125	C	1.202632	-0.236489	0.663526
C126	C	1.535965	0.096844	0.996859
N127	N	0.904829	-0.771635	0.311629
N128	N	1.238162	-0.438302	0.644963
N129	N	1.571496	-0.104969	0.978296
N130	N	0.904857	-0.834087	0.311644
N131	N	1.238190	-0.500753	0.644977
N132	N	1.571524	-0.167420	0.978310
C133	C	0.909641	-0.866461	0.380841
C134	C	1.242974	-0.533127	0.714174
C135	C	1.576308	-0.199794	1.047508
N136	N	0.914408	-0.834024	0.450026
N137	N	1.247742	-0.500690	0.783359
N138	N	1.581075	-0.167357	1.116692
N139	N	0.914384	-0.771566	0.450011
N140	N	1.247717	-0.438233	0.783344
N141	N	1.581050	-0.104900	1.116677
C142	C	0.909590	-0.739671	0.380814
C143	C	1.242924	-0.406338	0.714147
C144	C	1.576257	-0.073005	1.047480
C145	C	0.949903	-0.970560	0.431463
C146	C	1.283236	-0.637227	0.764797
C147	C	1.616570	-0.303893	1.098130
C148	C	0.949921	-1.036304	0.431484
C149	C	1.283254	-0.702971	0.764817
C150	C	1.616588	-0.369637	1.098151
C151	C	0.869474	-1.036406	0.330285
C152	C	1.202807	-0.703073	0.663619
C153	C	1.536140	-0.369740	0.996952
C154	C	0.869452	-0.970664	0.330272
C155	C	1.202786	-0.637331	0.663605
C156	C	1.536119	-0.303997	0.996938
C157	C	0.909671	-0.937745	0.380859
C158	C	1.243004	-0.604411	0.714193
C159	C	1.576337	-0.271078	1.047526
C160	C	1.073764	-0.303408	0.380834
C161	C	1.407097	0.029925	0.714167
C162	C	1.740430	0.363258	1.047501
C163	C	1.143732	-0.303419	0.380844
C164	C	1.477065	0.029915	0.714177
C165	C	1.810398	0.363248	1.047511
C166	C	0.909563	-0.303378	0.586979
C167	C	1.242896	0.029956	0.920313
C168	C	1.576230	0.363289	1.253646
C169	C	0.909559	-0.303375	0.674836
C170	C	1.242892	0.029958	1.008169
C171	C	1.576225	0.363291	1.341503
C172	C	0.909671	-0.139193	0.380869
C173	C	1.243004	0.194140	0.714202
C174	C	1.576338	0.527473	1.047535
C175	C	0.909713	-0.069225	0.380893
C176	C	1.243046	0.264108	0.714227
C177	C	1.576379	0.597441	1.047560
C178	C	0.869286	-0.343644	1.046294
C179	C	1.202619	-0.010311	1.379628
C180	C	1.535953	0.323022	1.712961
C181	C	0.949850	-0.263141	1.046329
C182	C	1.283183	0.070193	1.379662
C183	C	1.616517	0.403526	1.712995
C184	C	0.949848	-0.263135	0.963783
C185	C	1.283181	0.070198	1.297116
C186	C	1.616514	0.403531	1.630450
C187	C	0.909565	-0.303386	0.922489
C188	C	1.242898	0.029947	1.255822
C189	C	1.576232	0.363281	1.589156
C190	C	0.869284	-0.343642	0.963741
C191	C	1.202617	-0.010308	1.297074
C192	C	1.535951	0.323025	1.630407
C193	C	0.990132	-0.222885	0.922525
C194	C	1.323466	0.110448	1.255858
C195	C	1.656799	0.443782	1.589192
C196	C	0.990132	-0.222879	0.839974
C197	C	1.323466	0.110455	1.173307
C198	C	1.656799	0.443788	1.506641
C199	C	0.949846	-0.263126	0.798678
C200	C	1.283179	0.070207	1.132012
C201	C	1.616512	0.403540	1.465345
C202	C	0.909563	-0.303383	0.839935
C203	C	1.242896	0.029950	1.173269
C204	C	1.576230	0.363283	1.506602
C205	C	0.869280	-0.343634	0.798641
C206	C	1.202613	-0.010300	1.131975
C207	C	1.535947	0.323033	1.465308
C208	C	0.828993	-0.383888	0.839897
C209	C	1.162327	-0.050555	1.173230
C210	C	1.495660	0.282779	1.506564
C211	C	0.828998	-0.383889	0.922445
C212	C	1.162331	-0.050556	1.255779
C213	C	1.495664	0.282777	1.589112
C214	C	0.949842	-0.263125	0.716130
C215	C	1.283175	0.070209	1.049463
C216	C	1.616508	0.403542	1.382797
C217	C	0.869278	-0.343631	0.716088
C218	C	1.202611	-0.010298	1.049421
C219	C	1.535945	0.323036	1.382755
C220	C	0.909575	-0.303400	1.175445
C221	C	1.242909	0.029933	1.508778
C222	C	1.576242	0.363266	1.842112
C223	C	0.909569	-0.303394	1.087588
C224	C	1.242902	0.029940	1.420922
C225	C	1.576236	0.363273	1.754255
H226	H	0.550647	-0.376309	0.288930
H227	H	0.883980	-0.042976	0.622263
H228	H	1.217314	0.290357	0.955597
C229	C	1.034439	-0.178597	0.794600
C230	C	1.367773	0.154737	1.127933
C231	C	1.701106	0.488070	1.461267
H232	H	1.058427	-0.154623	0.831017
H233	H	1.391760	0.178710	1.164350
H234	H	1.725094	0.512044	1.497684
H235	H	1.061852	-0.202675	0.762382
H236	H	1.395185	0.130658	1.095716
H237	H	1.728518	0.463991	1.429049
H238	H	1.010368	-0.151161	0.762415
H239	H	1.343701	0.182172	1.095749
H240	H	1.677035	0.515506	1.429082
H241	H	0.269139	-0.230470	0.472703
H242	H	0.602472	0.102863	0.806036
H243	H	0.935806	0.436197	1.139369
H244	H	0.982650	-0.230374	1.079955
H245	H	1.315983	0.102959	1.413289
H246	H	1.649317	0.436293	1.746622
H247	H	0.669977	-0.230435	0.472677
H248	H	1.003310	0.102898	0.806011
H249	H	1.336643	0.436232	1.139344
H250	H	0.982499	-0.542917	0.472571
H251	H	1.315832	-0.209583	0.805904
H252	H	1.649165	0.123750	1.139237
C253	C	0.278460	-0.387822	0.274486
C254	C	0.611793	-0.054488	0.607819
C255	C	0.945126	0.278845	0.941153
H256	H	0.322323	-0.382054	0.281727
H257	H	0.655656	-0.048721	0.615060
H258	H	0.988990	0.284612	0.948394
H259	H	0.267675	-0.430132	0.285959
H260	H	0.601008	-0.096799	0.619292
H261	H	0.934342	0.236535	0.952626
H262	H	0.267681	-0.378544	0.221397
H263	H	0.601014	-0.045210	0.554730
H264	H	0.934348	0.288123	0.888064
H265	H	0.982644	-0.230352	0.682543
H266	H	1.315977	0.102981	1.015877
H267	H	1.649311	0.436314	1.349210
C268	C	0.994042	-0.671563	0.487047
C269	C	1.327375	-0.338230	0.820381
C270	C	1.660709	-0.004896	1.153714
H271	H	1.017994	-0.642542	0.517168
H272	H	1.351327	-0.309208	0.850502
H273	H	1.684660	0.024125	1.183835
H274	H	0.969955	-0.697220	0.521466
H275	H	1.303288	-0.363887	0.854800
H276	H	1.636622	-0.030554	1.188133
H277	H	1.021499	-0.697193	0.456831
H278	H	1.354832	-0.363859	0.790164
H279	H	1.688165	-0.030526	1.123498
C280	C	0.140406	-0.387843	0.274502
C281	C	0.473739	-0.054509	0.607835
C282	C	0.807072	0.278824	0.941168
H283	H	0.169386	-0.411778	0.244335
H284	H	0.502720	-0.078445	0.577669
H285	H	0.836053	0.254889	0.911002
H286	H	0.114751	-0.415307	0.304677
H287	H	0.448084	-0.081974	0.638010
H288	H	0.781417	0.251360	0.971343
H289	H	0.114768	-0.363719	0.240114
H290	H	0.448102	-0.030386	0.573448
H291	H	0.781435	0.302948	0.906781
C292	C	0.679294	-0.387784	0.274449
C293	C	1.012628	-0.054451	0.607782
C294	C	1.345961	0.278883	0.941116
H295	H	0.650290	-0.411731	0.244297
H296	H	0.983624	-0.078398	0.577630
H297	H	1.316957	0.254936	0.910964
H298	H	0.704947	-0.363663	0.240061
H299	H	1.038280	-0.030330	0.573394
H300	H	1.371613	0.303004	0.906727
H301	H	0.704931	-0.415247	0.304628
H302	H	1.038265	-0.081914	0.637961
H303	H	1.371598	0.251420	0.971295
C304	C	0.825243	-1.072617	0.274640
C305	C	1.158576	-0.739284	0.607974
C306	C	1.491909	-0.405950	0.941307
H307	H	0.831021	-1.116470	0.281892
H308	H	1.164355	-0.783137	0.615225
H309	H	1.497688	-0.449804	0.948559
H310	H	0.782937	-1.061871	0.286159
H311	H	1.116270	-0.728538	0.619493
H312	H	1.449603	-0.395204	0.952826
H313	H	0.834490	-1.061857	0.221536
H314	H	1.167824	-0.728524	0.554869
H315	H	1.501157	-0.395191	0.888203
C316	C	0.824974	-0.387922	1.091666
C317	C	1.158307	-0.054589	1.425000
C318	C	1.491641	0.278744	1.758333
H319	H	0.800981	-0.411889	1.055248
H320	H	1.134315	-0.078556	1.388581
H321	H	1.467648	0.254777	1.721914
H322	H	0.849035	-0.415354	1.123860
H323	H	1.182368	-0.082021	1.457194
H324	H	1.515702	0.251312	1.790527
H325	H	0.797557	-0.363835	1.123874
H326	H	1.130890	-0.030501	1.457208
H327	H	1.464223	0.302832	1.790541
H328	H	0.982686	-1.063020	0.472690
H329	H	1.316019	-0.729687	0.806023
H330	H	1.649352	-0.396353	1.139356
H331	H	0.550713	-0.230436	0.472676
H332	H	0.884046	0.102897	0.806009
H333	H	1.217379	0.436231	1.139343
H334	H	0.836586	-0.662376	0.289015
H335	H	1.169919	-0.329043	0.622348
H336	H	1.503252	0.004290	0.955682
H337	H	0.149875	-0.230482	0.472714
H338	H	0.483209	0.102851	0.806047
H339	H	0.816542	0.436185	1.139380
C340	C	1.034431	-0.178606	0.967948
C341	C	1.367764	0.154728	1.301281
C342	C	1.701098	0.488061	1.634614
H343	H	1.028653	-0.184365	1.023019
H344	H	1.361987	0.148968	1.356352
H345	H	1.695320	0.482301	1.689685
H346	H	1.076724	-0.187816	0.954427
H347	H	1.410057	0.145518	1.287760
H348	H	1.743391	0.478851	1.621093
H349	H	1.025232	-0.136309	0.954431
H350	H	1.358566	0.197024	1.287764
H351	H	1.691899	0.530358	1.621098
H352	H	0.836469	-0.376403	0.682472
H353	H	1.169802	-0.043069	1.015805
H354	H	1.503135	0.290264	1.349139
C355	C	0.825041	-0.533726	0.274529
C356	C	1.158374	-0.200392	0.607862
C357	C	1.491708	0.132941	0.941196
H358	H	0.801099	-0.562748	0.244397
H359	H	1.134433	-0.229415	0.577731
H360	H	1.467766	0.103918	0.911064
H361	H	0.797584	-0.508088	0.304726
H362	H	1.130918	-0.174755	0.638060
H363	H	1.464251	0.158579	0.971393
H364	H	0.849142	-0.508077	0.240108
H365	H	1.182475	-0.174743	0.573441
H366	H	1.515808	0.158590	0.906775
C367	C	0.994134	-0.934343	0.487111
C368	C	1.327467	-0.601010	0.820444
C369	C	1.660801	-0.267677	1.153777
H370	H	0.988363	-0.890490	0.479849
H371	H	1.321696	-0.557157	0.813183
H372	H	1.655029	-0.223823	1.146516
H373	H	0.984889	-0.945103	0.540211
H374	H	1.318222	-0.611769	0.873545
H375	H	1.651555	-0.278436	1.206878
H376	H	1.036443	-0.945089	0.475590
H377	H	1.369777	-0.611756	0.808923
H378	H	1.703110	-0.278422	1.142256
C379	C	0.825200	-0.934567	0.274605
C380	C	1.158533	-0.601233	0.607938
C381	C	1.491867	-0.267900	0.941272
H382	H	0.801261	-0.963590	0.244472
H383	H	1.134594	-0.630257	0.577805
H384	H	1.467927	-0.296923	0.911138
H385	H	0.797741	-0.908931	0.304801
H386	H	1.131074	-0.575597	0.638134
H387	H	1.464408	-0.242264	0.971468
H388	H	0.849301	-0.908916	0.240186
H389	H	1.182634	-0.575583	0.573519
H390	H	1.515967	-0.242250	0.906853
H391	H	0.796198	-0.416663	0.806265
H392	H	1.129531	-0.083329	1.139598
H393	H	1.462865	0.250004	1.472931
C394	C	0.784691	-0.428170	0.967823
C395	C	1.118025	-0.094836	1.301157
C396	C	1.451358	0.238497	1.634490
H397	H	0.760695	-0.452138	0.931410
H398	H	1.094029	-0.118805	1.264743
H399	H	1.427362	0.214529	1.598076
H400	H	0.808759	-0.455601	1.000012
H401	H	1.142092	-0.122267	1.333345
H402	H	1.475425	0.211066	1.666678
H403	H	0.757277	-0.404084	1.000038
H404	H	1.090611	-0.070751	1.333371
H405	H	1.423944	0.262583	1.666704
