data_functionalizedCrystal
_audit_creation_method	'MofGen! by Chris Wilmer'
_symmetry_space_group_name_H-M	'P1'
_symmetry_Int_Tables_number	1
_symmetry_cell_setting	triclinic
loop_
_symmetry_equiv_pos_as_xyz
  x,y,z
_cell_length_a	10.967926
_cell_length_b	10.967961
_cell_length_c	17.766277
_cell_angle_alpha	77.867152
_cell_angle_beta	102.119897
_cell_angle_gamma	87.248961
loop_
_atom_site_label
_atom_site_type_symbol
_atom_site_fract_x
_atom_site_fract_y
_atom_site_fract_z
O1	O	1.657139	0.175007	0.129665
O2	O	2.157139	0.675007	0.629665
O3	O	1.294002	0.191765	0.080386
O4	O	1.794002	0.691765	0.580386
O5	O	1.483940	0.001810	0.129664
O6	O	1.983940	0.501810	0.629664
O7	O	1.467201	0.364963	0.080387
O8	O	1.967201	0.864963	0.580387
O9	O	1.483906	0.001800	0.254850
O10	O	1.983906	0.501800	0.754850
O11	O	1.293968	0.191755	0.205571
O12	O	1.793968	0.691755	0.705571
O13	O	1.657106	0.174997	0.254851
O14	O	2.157106	0.674997	0.754851
Cu15	Cu	1.475534	0.183375	0.241641
Cu16	Cu	1.975534	0.683375	0.741641
Cu17	Cu	1.475574	0.183387	0.093595
Cu18	Cu	1.975574	0.683387	0.593595
O19	O	1.467168	0.364953	0.205572
O20	O	1.967168	0.864953	0.705572
C21	C	1.247487	0.190542	0.137105
C22	C	1.747487	0.690542	0.637105
C23	C	1.108938	0.186896	0.119606
C24	C	1.608938	0.686896	0.619606
C25	C	1.482702	-0.044695	0.198129
C26	C	1.982702	0.455305	0.698129
C27	C	1.479049	-0.183249	0.215623
C28	C	1.979049	0.316751	0.715623
C29	C	1.473668	-0.388219	0.176654
C30	C	1.973668	0.111781	0.676654
C31	C	1.477440	-0.245015	0.158568
C32	C	1.977440	0.254985	0.658568
C33	C	1.047151	0.185265	0.176653
C34	C	1.547151	0.685265	0.676653
C35	C	0.903953	0.181497	0.158568
C36	C	1.403953	0.681497	0.658568
C37	C	1.703620	0.176221	0.198130
C38	C	2.203620	0.676221	0.698130
C39	C	1.842169	0.179867	0.215624
C40	C	2.342169	0.679867	0.715624
C41	C	1.468406	0.411458	0.137106
C42	C	1.968406	0.911458	0.637106
C43	C	1.472059	0.550012	0.119607
C44	C	1.972059	1.050012	0.619607
N45	N	1.475515	0.183366	0.345770
N46	N	1.975515	0.683366	0.845770
N47	N	1.475603	0.183387	-0.010531
N48	N	1.975603	0.683387	0.489469
C49	C	1.559647	0.099296	0.406976
C50	C	2.059647	0.599296	0.906976
C51	C	1.559654	0.099290	0.485779
C52	C	2.059654	0.599290	0.985779
C53	C	1.475541	0.183377	0.503373
C54	C	1.975541	0.683377	1.003373
C55	C	1.391393	0.267453	0.442155
C56	C	1.891393	0.767453	0.942155
C57	C	1.391380	0.267448	0.363354
C58	C	1.891380	0.767448	0.863354
C59	C	1.460168	0.296889	0.611493
C60	C	1.960168	0.796889	1.111493
C61	C	1.460190	0.296896	0.690293
C62	C	1.960190	0.796896	1.190293
C63	C	1.475575	0.183392	0.746422
C64	C	1.975575	0.683392	1.246422
C65	C	1.490964	0.069876	0.723744
C66	C	1.990964	0.569876	1.223744
C67	C	1.490950	0.069871	0.644942
C68	C	1.990950	0.569871	1.144942
C69	C	1.475546	0.183391	0.588818
C70	C	1.975546	0.683391	1.088818
C71	C	1.559719	0.099308	0.893077
C72	C	2.059719	0.599308	1.393077
C73	C	1.559718	0.099301	0.971881
C74	C	2.059718	0.599301	1.471881
C75	C	1.391463	0.267475	0.928254
C76	C	1.891463	0.767475	1.428254
C77	C	1.391458	0.267471	0.849452
C78	C	1.891458	0.767471	1.349452
C79	C	1.475593	0.183390	0.831869
C80	C	1.975593	0.683390	1.331869
H81	H	1.472247	-0.441353	0.238883
H82	H	1.972247	0.058647	0.738883
Cl83	Cl	1.476863	-0.265266	0.311709
Cl84	Cl	1.976863	0.234734	0.811709
H85	H	1.322971	0.335935	0.942578
H86	H	1.822971	0.835935	1.442578
H87	H	1.628224	0.030840	0.878760
H88	H	2.128224	0.530840	1.378760
Cl89	Cl	1.665432	-0.006407	0.562734
Cl90	Cl	2.165432	0.493593	1.062734
Cl91	Cl	1.129146	0.187414	0.272735
Cl92	Cl	1.629146	0.687414	0.772735
H93	H	1.055823	0.185499	0.057376
H94	H	1.555823	0.685499	0.557376
H95	H	0.850843	0.180100	0.096335
H96	H	1.350843	0.680100	0.596335
Cl97	Cl	1.665486	-0.006404	1.048830
Cl98	Cl	2.165486	0.493596	1.548830
H99	H	1.478844	-0.191884	0.096332
H100	H	1.978844	0.308116	0.596332
H101	H	0.895278	0.181256	0.277859
H102	H	1.395278	0.681256	0.777859
Cl103	Cl	1.510281	-0.072827	0.616432
Cl104	Cl	2.010281	0.427173	1.116432
H105	H	1.628152	0.030829	0.392663
H106	H	2.128152	0.530829	0.892663
Cl107	Cl	1.510315	-0.072825	0.794299
Cl108	Cl	2.010315	0.427175	1.294299
Cl109	Cl	1.474232	-0.367961	0.023524
Cl110	Cl	1.974232	0.132039	0.523524
H111	H	1.322955	0.335935	0.799615
H112	H	1.822955	0.835935	1.299615
H113	H	1.447668	0.389327	0.708752
H114	H	1.947668	0.889327	1.208752
H115	H	1.447619	0.389324	0.565794
H116	H	1.947619	0.889324	1.065794
H117	H	1.322905	0.335916	0.456484
H118	H	1.822905	0.835916	0.956484
Cl119	Cl	1.285606	0.373147	0.286404
Cl120	Cl	1.785606	0.873147	0.786404
