data_functionalizedCrystal
_audit_creation_method	'MofGen! by Chris Wilmer'
_symmetry_space_group_name_H-M	'P1'
_symmetry_Int_Tables_number	1
_symmetry_cell_setting	triclinic
loop_
_symmetry_equiv_pos_as_xyz
  x,y,z
_cell_length_a	9.065215
_cell_length_b	9.065218
_cell_length_c	9.130313
_cell_angle_alpha	89.997322
_cell_angle_beta	89.997021
_cell_angle_gamma	85.015291
loop_
_atom_site_label
_atom_site_type_symbol
_atom_site_fract_x
_atom_site_fract_y
_atom_site_fract_z
O1	O	1.960402	0.216336	-0.121776
O2	O	1.531117	0.234087	-0.121782
O3	O	1.754632	0.010569	-0.121776
O4	O	1.736886	0.439854	-0.121782
O5	O	1.754617	0.010562	0.121823
O6	O	1.531101	0.234080	0.121817
O7	O	1.960386	0.216329	0.121823
Cu8	Cu	1.745742	0.225204	0.144063
Cu9	Cu	1.745761	0.225212	-0.144021
O10	O	1.736870	0.439847	0.121817
C11	C	1.476122	0.232379	0.000017
C12	C	1.312279	0.227281	0.000014
C13	C	1.752919	-0.044421	0.000021
C14	C	1.747819	-0.208264	0.000014
C15	C	2.015381	0.218038	0.000021
C16	C	2.179224	0.223136	0.000014
C17	C	1.738584	0.494837	0.000017
C18	C	1.743683	0.658680	0.000014
N19	N	1.745740	0.225198	0.346685
N20	N	1.745774	0.225207	-0.346644
C21	C	1.844747	0.126267	0.423340
C22	C	1.844761	0.126267	0.576677
C23	C	1.646757	0.324143	0.576691
C24	C	1.646737	0.324134	0.423357
H25	H	1.925380	0.045706	0.639085
H26	H	1.566152	0.404697	0.639132
C27	C	1.953637	0.017428	0.339000
C28	C	1.894470	-0.096230	0.233609
C29	C	2.003359	-0.205076	0.149275
C30	C	2.171415	-0.200263	0.170332
C31	C	2.230590	-0.086601	0.275728
C32	C	2.121701	0.022245	0.360062
H33	H	1.770057	-0.099796	0.218017
H34	H	1.959552	-0.289216	0.071254
H35	H	2.252021	-0.280838	0.107903
H36	H	2.355003	-0.083034	0.291320
H37	H	2.165507	0.106385	0.438083
H38	H	1.566106	0.404697	0.360940
