data_functionalizedCrystal
_audit_creation_method	'MofGen! by Chris Wilmer'
_symmetry_space_group_name_H-M	'P1'
_symmetry_Int_Tables_number	1
_symmetry_cell_setting	triclinic
loop_
_symmetry_equiv_pos_as_xyz
  x,y,z
_cell_length_a	19.377372
_cell_length_b	14.560438
_cell_length_c	19.377372
_cell_angle_alpha	48.620122
_cell_angle_beta	93.588494
_cell_angle_gamma	72.112724
loop_
_atom_site_label
_atom_site_type_symbol
_atom_site_fract_x
_atom_site_fract_y
_atom_site_fract_z
Zr1	Zr	0.544078	1.372742	-0.236125
O2	O	0.430267	1.564344	-0.349937
O3	O	0.578968	1.181141	-0.201238
O4	O	0.551794	1.442781	-0.377118
O5	O	0.478876	1.247456	-0.035317
O6	O	0.647656	1.498028	-0.398557
O7	O	0.457441	1.302704	-0.174056
O8	O	0.696265	1.030002	-0.083939
O9	O	0.430267	1.715482	-0.349935
O10	O	0.665388	1.301179	-0.202356
O11	O	0.609844	1.218718	-0.082817
O12	O	0.577851	1.526765	-0.289893
O13	O	0.522307	1.444304	-0.170354
Zr14	Zr	0.731155	1.372740	-0.049044
Zr15	Zr	0.696968	1.460855	-0.270318
Zr16	Zr	0.578265	1.284628	-0.014852
Zr17	Zr	0.544078	1.613789	-0.236122
Zr18	Zr	0.731155	1.131693	-0.049048
O19	O	0.696265	1.564341	-0.083932
O20	O	0.647656	1.689629	-0.398554
O21	O	0.478876	1.439056	-0.035314
O22	O	0.844966	1.181138	0.064767
O23	O	0.796357	1.306426	-0.249855
O24	O	0.627577	1.055854	0.113385
O25	O	0.796357	1.498026	-0.249853
O26	O	0.723439	1.302701	0.091948
O27	O	0.627577	1.247454	0.113387
O28	O	0.817792	1.442778	-0.111113
O29	O	0.551794	1.785519	-0.377113
O30	O	0.723439	0.959963	0.091944
O31	O	0.844966	1.030001	0.064765
O32	O	0.817792	1.100040	-0.111118
O33	O	0.457441	1.645442	-0.174052
O34	O	0.578968	1.715480	-0.201230
O35	O	0.697382	1.218717	0.004723
O36	O	0.752926	1.301178	-0.114816
O37	O	0.665389	1.526764	-0.202353
O38	O	0.609844	1.444303	-0.082814
C39	C	0.637616	1.071228	-0.142589
C40	C	0.637616	0.968897	-0.142590
C41	C	0.666607	0.963866	-0.204990
C42	C	0.666610	0.867706	-0.204982
C43	C	0.608626	0.781617	-0.080173
C44	C	0.608629	0.877769	-0.080176
C45	C	0.700080	1.013572	-0.277051
C46	C	0.700083	0.917412	-0.277043
C47	C	0.446375	1.262526	-0.099815
C48	C	0.381470	1.225120	-0.085299
C49	C	-0.060462	1.690852	-0.266028
C50	C	-0.121438	1.655672	-0.252375
C51	C	-0.030046	1.420178	-0.160993
C52	C	0.030941	1.455336	-0.174634
C53	C	0.015726	1.590676	-0.227153
C54	C	0.107128	1.355160	-0.135759
C55	C	0.168108	1.390319	-0.149404
C56	C	0.152900	1.525653	-0.201923
C57	C	0.076706	1.625834	-0.240798
C58	C	0.122340	1.219824	-0.083246
C59	C	0.198527	1.119648	-0.044372
C60	C	0.259510	1.154803	-0.058010
C61	C	0.244302	1.290137	-0.110529
C62	C	0.335705	1.054622	-0.019136
C63	C	0.396684	1.089780	-0.032780
C64	C	0.305282	1.325296	-0.124174
C65	C	0.828858	1.482956	-0.185355
C66	C	0.893763	1.520363	-0.199870
C67	C	0.594854	1.482959	-0.419364
C68	C	0.580341	1.520366	-0.513301
C69	C	0.637617	1.674254	-0.142581
C70	C	0.637617	1.776585	-0.142579
C71	C	0.761054	1.054629	-0.593780
C72	C	0.747401	1.089808	-0.682058
C73	C	0.656018	1.325302	-0.773431
C74	C	0.669666	1.290145	-0.685159
C75	C	0.722184	1.154806	-0.595338
C76	C	0.630796	1.390321	-0.686717
C77	C	0.644440	1.355164	-0.598452
C78	C	0.696954	1.219831	-0.508628
C79	C	0.735828	1.119649	-0.507073
C80	C	0.578275	1.525657	-0.776538
C81	C	0.539405	1.625834	-0.778097
C82	C	0.553053	1.590680	-0.689831
C83	C	0.605566	1.455346	-0.600007
C84	C	0.514179	1.690862	-0.691387
C85	C	0.527823	1.655705	-0.603121
C86	C	0.619210	1.420190	-0.511742
C87	C	0.680379	1.262523	0.134195
C88	C	0.694892	1.225116	0.228131
C89	C	0.828858	1.181443	-0.185359
C90	C	0.893763	1.116518	-0.199876
C91	C	0.680379	0.961010	0.134191
C92	C	0.694892	0.821272	0.228126
C93	C	0.871620	1.071225	0.091421
C94	C	0.951039	0.968893	0.170840
C95	C	0.403613	1.674257	-0.376590
C96	C	0.324194	1.776589	-0.456010
C97	C	0.446375	1.564039	-0.099811
C98	C	0.381470	1.628964	-0.085294
C99	C	0.594854	1.784472	-0.419360
C100	C	0.580341	1.924210	-0.513295
C101	C	0.878548	1.086033	-0.252397
C102	C	0.939525	1.025048	-0.266057
C103	C	1.015717	0.994539	-0.227188
C104	C	1.030931	1.025033	-0.174665
C105	C	0.969954	1.086026	-0.161012
C106	C	0.747403	0.755645	0.317943
C107	C	0.761038	0.624355	0.406214
C108	C	0.722166	0.558690	0.404664
C109	C	0.669649	0.624328	0.314838
C110	C	0.656010	0.755620	0.226570
C111	C	1.017335	0.963885	0.145737
C112	C	1.091962	0.867754	0.220350
C113	C	1.100291	0.776625	0.320066
C114	C	1.033988	0.781640	0.345169
C115	C	0.959363	0.877777	0.270556
C116	C	0.257898	1.781609	-0.430906
C117	C	0.183271	1.877770	-0.505519
C118	C	0.174942	1.968904	-0.605235
C119	C	0.241245	1.963883	-0.630338
C120	C	0.315870	1.867729	-0.555726
C121	C	0.396683	1.659463	-0.032781
C122	C	0.335703	1.720485	-0.019146
C123	C	0.259511	1.750997	-0.058018
C124	C	0.244297	1.720498	-0.110537
C125	C	0.305276	1.659486	-0.124178
C126	C	0.619225	1.989836	-0.511714
C127	C	0.605604	2.121126	-0.599971
C128	C	0.553093	2.186793	-0.689806
C129	C	0.514208	2.121156	-0.691385
C130	C	0.527834	1.989864	-0.603130
H131	H	0.663325	0.974322	-0.354318
F132	F	0.232368	2.060882	-0.736470
H133	H	0.762546	0.994826	-0.255109
H134	H	0.803804	0.570930	0.479344
H135	H	0.982354	1.110836	-0.118238
H136	H	0.292896	1.435491	-0.166910
H137	H	0.471413	1.801051	-0.764528
F138	F	0.600122	1.469332	-0.869029
H139	H	1.161060	0.698351	0.380810
F140	F	0.646751	1.158919	-0.373175
F141	F	1.042865	0.684644	0.451300
F142	F	0.538598	2.326529	-0.783728
H143	H	0.264666	1.707407	-0.349717
H144	H	0.292879	1.634652	-0.166935
H145	H	0.471453	2.174642	-0.764541
H146	H	1.065361	0.944873	-0.238311
F147	F	0.163203	1.752976	-0.151900
F148	F	0.095513	2.071232	-0.684635
F149	F	0.780567	0.812373	-0.239355
H150	H	0.567167	1.554276	-0.848407
F151	F	0.217801	1.563074	-0.216449
H152	H	0.816512	1.110881	-0.284064
H153	H	0.129293	1.881836	-0.485060
H154	H	0.369848	1.863649	-0.576178
H155	H	0.496643	1.736025	-0.851238
H156	H	0.779055	1.008221	-0.680778
H157	H	0.637271	2.174551	-0.598666
F158	F	0.477768	1.627004	0.008595
F159	F	0.351910	1.752928	0.036755
F160	F	0.194619	1.815931	-0.043491
F161	F	0.486437	1.920040	-0.604826
H162	H	0.905386	0.881836	0.291011
F163	F	0.577789	0.883097	-0.013746
F164	F	0.788785	0.825505	0.319613
H165	H	0.585025	0.707411	-0.029358
F166	F	0.057436	1.182411	-0.068734
F167	F	0.711471	1.182411	-0.414686
F168	F	1.008487	1.060865	0.039616
F169	F	0.675115	1.919972	-0.416114
H170	H	1.092974	1.000184	-0.143022
F171	F	-0.076651	1.834892	-0.321914
F172	F	0.060516	1.769875	-0.296684
H173	H	-0.017669	1.309985	-0.118235
F174	F	-0.202528	1.762307	-0.293763
H175	H	0.210904	1.009456	-0.001614
F176	F	0.351884	0.910593	0.036747
H177	H	0.927123	1.000226	-0.308825
F178	F	0.736690	0.418956	0.498616
F179	F	0.600124	0.825447	0.130982
F180	F	0.477772	0.983163	0.008591
H181	H	0.661979	1.309985	-0.438603
F182	F	0.791745	0.975617	-0.411477
F183	F	0.486462	1.762329	-0.604781
H184	H	0.638003	0.570843	0.313591
F185	F	1.162516	0.862435	0.193613
F186	F	0.816971	0.910597	-0.498184
