data_functionalizedCrystal
_audit_creation_method	'MofGen! by Chris Wilmer'
_symmetry_space_group_name_H-M	'P1'
_symmetry_Int_Tables_number	1
_symmetry_cell_setting	triclinic
loop_
_symmetry_equiv_pos_as_xyz
  x,y,z
_cell_length_a	19.288864
_cell_length_b	14.519709
_cell_length_c	13.596369
_cell_angle_alpha	90.014408
_cell_angle_beta	89.980825
_cell_angle_gamma	96.591806
loop_
_atom_site_label
_atom_site_type_symbol
_atom_site_fract_x
_atom_site_fract_y
_atom_site_fract_z
O1	O	0.921763	-0.115045	-0.082125
O2	O	1.255096	0.218288	0.251208
O3	O	1.588430	0.551622	0.584542
O4	O	0.719558	-0.130564	-0.082060
O5	O	1.052892	0.202769	0.251273
O6	O	1.386225	0.536102	0.584606
O7	O	0.826022	0.011468	-0.082067
O8	O	1.159355	0.344801	0.251266
O9	O	1.492688	0.678134	0.584600
O10	O	0.815299	-0.257077	-0.082118
O11	O	1.148633	0.076256	0.251215
O12	O	1.481966	0.409589	0.584548
O13	O	0.826011	0.011475	0.081516
O14	O	1.159344	0.344808	0.414849
O15	O	1.492678	0.678142	0.748183
O16	O	0.719548	-0.130557	0.081523
O17	O	1.052881	0.202776	0.414856
O18	O	1.386214	0.536110	0.748189
O19	O	0.921752	-0.115038	0.081458
O20	O	1.255086	0.218296	0.414791
O21	O	1.588419	0.551629	0.748125
Zn22	Zn	0.820648	-0.122796	0.107463
Zn23	Zn	1.153982	0.210537	0.440796
Zn24	Zn	1.487315	0.543870	0.774129
Zn25	Zn	0.820662	-0.122806	-0.108065
Zn26	Zn	1.153996	0.210527	0.225268
Zn27	Zn	1.487329	0.543861	0.558602
O28	O	0.815289	-0.257070	0.081465
O29	O	1.148622	0.076263	0.414798
O30	O	1.481955	0.409597	0.748131
C31	C	0.693675	-0.130061	-0.000260
C32	C	1.027008	0.203272	0.333073
C33	C	1.360341	0.536605	0.666407
C34	C	0.616566	-0.128562	-0.000234
C35	C	0.949899	0.204771	0.333099
C36	C	1.283232	0.538104	0.666433
C37	C	0.825517	0.045828	-0.000270
C38	C	1.158850	0.379161	0.333063
C39	C	1.492183	0.712495	0.666396
C40	C	0.824019	0.148200	-0.000255
C41	C	1.157353	0.481533	0.333078
C42	C	1.490686	0.814866	0.666412
C43	C	0.572169	-0.211900	-0.000265
C44	C	0.905503	0.121433	0.333068
C45	C	1.238836	0.454766	0.666401
C46	C	0.499717	-0.210492	-0.000276
C47	C	0.833050	0.122841	0.333057
C48	C	1.166384	0.456175	0.666391
C49	C	0.471665	-0.125741	-0.000275
C50	C	0.804998	0.207592	0.333058
C51	C	1.138331	0.540926	0.666392
C52	C	0.516071	-0.042392	-0.000238
C53	C	0.849404	0.290941	0.333095
C54	C	1.182737	0.624275	0.666429
C55	C	0.588521	-0.043803	-0.000217
C56	C	0.921855	0.289531	0.333116
C57	C	1.255188	0.622864	0.666449
C58	C	0.363167	-0.059120	-0.057606
C59	C	0.696500	0.274213	0.275728
C60	C	1.029833	0.607547	0.609061
C61	C	0.290717	-0.057713	-0.057632
C62	C	0.624050	0.275621	0.275701
C63	C	0.957384	0.608954	0.609035
C64	C	0.248203	-0.121387	-0.000334
C65	C	0.581537	0.211947	0.333000
C66	C	0.914870	0.545280	0.666333
C67	C	0.278147	-0.186483	0.056979
C68	C	0.611480	0.146850	0.390312
C69	C	0.944813	0.480183	0.723645
C70	C	0.350597	-0.187894	0.056999
C71	C	0.683930	0.145439	0.390332
C72	C	1.017264	0.478773	0.723666
C73	C	0.393105	-0.124202	-0.000297
C74	C	0.726438	0.209131	0.333037
C75	C	1.059772	0.542465	0.666370
C76	C	0.125246	-0.203203	-0.000375
C77	C	0.458579	0.130130	0.332958
C78	C	0.791912	0.463463	0.666291
C79	C	0.052792	-0.201792	-0.000380
C80	C	0.386126	0.131542	0.332954
C81	C	0.719459	0.464875	0.666287
C82	C	0.069148	-0.033689	-0.000351
C83	C	0.402481	0.299644	0.332982
C84	C	0.735814	0.632977	0.666315
C85	C	0.141599	-0.035103	-0.000337
C86	C	0.474933	0.298230	0.332996
C87	C	0.808266	0.631563	0.666330
C88	C	0.169644	-0.119863	-0.000354
C89	C	0.502977	0.213470	0.332980
C90	C	0.836310	0.546804	0.666313
C91	C	0.818507	0.523061	-0.000226
C92	C	1.151840	0.856394	0.333107
C93	C	1.485173	1.189727	0.666440
C94	C	0.820037	0.418762	-0.000234
C95	C	1.153371	0.752096	0.333099
C96	C	1.486704	1.085429	0.666433
C97	C	0.821263	0.335633	-0.000240
C98	C	1.154596	0.668967	0.333094
C99	C	1.487929	1.002300	0.666427
C100	C	0.822794	0.231329	-0.000249
C101	C	1.156127	0.564662	0.333084
C102	C	1.489461	0.897995	0.666417
C103	C	0.947636	-0.115541	-0.000344
C104	C	1.280969	0.217793	0.332989
C105	C	1.614303	0.551126	0.666322
C106	C	1.024745	-0.117040	-0.000377
C107	C	1.358078	0.216294	0.332956
C108	C	1.691412	0.549627	0.666290
N109	N	0.820644	-0.122789	0.254554
N110	N	1.153977	0.210544	0.587888
N111	N	1.487310	0.543878	0.921221
C112	C	0.815794	0.708570	-0.000299
C113	C	1.149127	1.041903	0.333034
C114	C	1.482461	1.375236	0.666367
C115	C	0.817291	0.606198	-0.000217
C116	C	1.150625	0.939531	0.333117
C117	C	1.483958	1.272865	0.666450
N118	N	0.820672	-0.122806	-0.255157
N119	N	1.154006	0.210527	0.078177
N120	N	1.487339	0.543861	0.411510
C121	C	0.820661	-0.122807	0.655845
C122	C	1.153995	0.210526	0.989179
C123	C	1.487328	0.543860	1.322512
C124	C	0.820654	-0.122805	0.544194
C125	C	1.153988	0.210528	0.877527
C126	C	1.487321	0.543862	1.210861
C127	C	0.820653	-0.122799	0.455203
C128	C	1.153986	0.210535	0.788537
C129	C	1.487320	0.543868	1.121870
C130	C	0.820645	-0.122795	0.343545
C131	C	1.153979	0.210538	0.676878
C132	C	1.487312	0.543871	1.010212
H133	H	0.594998	-0.280918	-0.000281
H134	H	0.928331	0.052415	0.333053
H135	H	1.261665	0.385748	0.666386
H136	H	0.493226	0.026613	-0.000251
H137	H	0.826559	0.359946	0.333083
H138	H	1.159893	0.693280	0.666416
C139	C	0.637360	0.047880	-0.000189
C140	C	0.970693	0.381213	0.333144
C141	C	1.304026	0.714546	0.666477
N142	N	0.674146	0.116936	-0.000172
N143	N	1.007479	0.450270	0.333162
N144	N	1.340812	0.783603	0.666495
H145	H	0.016645	-0.269658	-0.000400
H146	H	0.349978	0.063675	0.332934
H147	H	0.683311	0.397008	0.666267
C148	C	0.190438	0.056576	-0.000314
C149	C	0.523771	0.389910	0.333019
C150	C	0.857104	0.723243	0.666353
N151	N	0.227223	0.125634	-0.000295
N152	N	0.560556	0.458967	0.333038
N153	N	0.893889	0.792301	0.666372
C154	C	0.383533	-0.259490	0.120052
C155	C	0.716866	0.073843	0.453385
C156	C	1.050200	0.407176	0.786718
N157	N	0.408340	-0.313414	0.167549
N158	N	0.741674	0.019919	0.500882
N159	N	1.075007	0.353253	0.834215
C160	C	0.450872	-0.302174	-0.000322
C161	C	0.784205	0.031159	0.333011
C162	C	1.117539	0.364493	0.666344
N163	N	0.414084	-0.371229	-0.000362
N164	N	0.747417	-0.037896	0.332971
N165	N	1.080751	0.295438	0.666305
C166	C	0.231387	-0.256528	0.120016
C167	C	0.564720	0.076805	0.453349
C168	C	0.898054	0.410139	0.786683
N169	N	0.196164	-0.309284	0.167493
N170	N	0.529498	0.024050	0.500827
N171	N	0.862831	0.357383	0.834160
H172	H	0.148080	-0.272220	-0.000374
H173	H	0.481414	0.061114	0.332959
H174	H	0.814747	0.394447	0.666292
C175	C	0.038294	0.059538	-0.000349
C176	C	0.371628	0.392872	0.332984
C177	C	0.704961	0.726205	0.666318
N178	N	0.015052	0.129760	-0.000345
N179	N	0.348385	0.463093	0.332988
N180	N	0.681719	0.796427	0.666321
C181	C	0.409925	0.010927	-0.120647
C182	C	0.743258	0.344261	0.212686
C183	C	1.076592	0.677594	0.546019
N184	N	0.445142	0.063684	-0.168130
N185	N	0.778475	0.397018	0.165203
N186	N	1.111809	0.730351	0.498536
C187	C	0.257787	0.013900	-0.120670
C188	C	0.591120	0.347233	0.212664
C189	C	0.924454	0.680566	0.545997
N190	N	0.232986	0.067843	-0.168147
N191	N	0.566320	0.401177	0.165186
N192	N	0.899653	0.734510	0.498519
