data_functionalizedCrystal
_audit_creation_method	'MofGen! by Chris Wilmer'
_symmetry_space_group_name_H-M	'P1'
_symmetry_Int_Tables_number	1
_symmetry_cell_setting	triclinic
loop_
_symmetry_equiv_pos_as_xyz
  x,y,z
_cell_length_a	15.944499
_cell_length_b	15.944493
_cell_length_c	11.804365
_cell_angle_alpha	101.834508
_cell_angle_beta	78.150915
_cell_angle_gamma	83.476327
loop_
_atom_site_label
_atom_site_type_symbol
_atom_site_fract_x
_atom_site_fract_y
_atom_site_fract_z
O1	O	1.131511	0.091156	-0.099086
O2	O	1.631511	0.591156	0.400914
O3	O	0.886950	0.104560	-0.099071
O4	O	1.386950	0.604560	0.400929
O5	O	1.015936	-0.024423	-0.099089
O6	O	1.515936	0.475577	0.400911
O7	O	1.002525	0.220139	-0.099068
O8	O	1.502525	0.720139	0.400932
O9	O	0.981979	0.009499	0.098972
O10	O	1.481979	0.509499	0.598972
O11	O	0.852993	0.138482	0.098990
O12	O	1.352993	0.638482	0.598990
O13	O	1.097554	0.125078	0.098975
O14	O	1.597554	0.625078	0.598975
Cu15	Cu	0.972173	0.134877	0.117067
Cu16	Cu	1.472173	0.634877	0.617067
Cu17	Cu	1.012331	0.094760	-0.117163
Cu18	Cu	1.512331	0.594760	0.382837
O19	O	0.968568	0.254061	0.098993
O20	O	1.468568	0.754061	0.598993
C21	C	0.838677	0.120973	-0.000039
C22	C	1.338677	0.620973	0.499961
C23	C	0.745428	0.119329	-0.000034
C24	C	1.245428	0.619329	0.499966
C25	C	0.453878	0.194261	-0.000045
C26	C	0.953878	0.694261	0.499955
C27	C	0.531659	0.138582	-0.097705
C28	C	1.031659	0.638582	0.402295
C29	C	0.409797	0.113348	-0.000062
C30	C	0.909797	0.613348	0.499938
C31	C	0.498166	0.172005	0.097567
C32	C	0.998166	0.672005	0.597567
C33	C	0.574703	0.116291	-0.000046
C34	C	1.074703	0.616291	0.499954
C35	C	0.486364	0.057632	-0.097802
C36	C	0.986364	0.557632	0.402198
C37	C	0.452850	0.091081	0.097558
C38	C	0.952850	0.591081	0.597558
C39	C	0.530617	0.035339	-0.000126
C40	C	1.030617	0.535339	0.499874
C41	C	0.314800	0.111654	-0.000072
C42	C	0.814800	0.611654	0.499928
C43	C	0.669701	0.117977	-0.000044
C44	C	1.169701	0.617977	0.499956
C45	C	0.998411	-0.038758	-0.000063
C46	C	1.498411	0.461242	0.499937
C47	C	0.996770	-0.132009	-0.000078
C48	C	1.496770	0.367991	0.499922
C49	C	1.072689	-0.367780	-0.000061
C50	C	1.572689	0.132220	0.499939
C51	C	1.048489	-0.435065	-0.097712
C52	C	1.548489	0.064935	0.402288
C53	C	0.993724	-0.302727	-0.000064
C54	C	1.493724	0.197273	0.499936
C55	C	1.014992	-0.401596	0.097561
C56	C	1.514992	0.098404	0.597561
C57	C	0.990786	-0.467632	-0.000044
C58	C	1.490786	0.032368	0.499956
C59	C	0.969559	-0.368797	-0.097795
C60	C	1.469559	0.131203	0.402205
C61	C	0.936058	-0.335311	0.097565
C62	C	1.436058	0.164689	0.597565
C63	C	0.911804	-0.402567	-0.000110
C64	C	1.411804	0.097433	0.499890
C65	C	0.995418	-0.207729	-0.000076
C66	C	1.495418	0.292271	0.499924
C67	C	0.989086	-0.562628	-0.000040
C68	C	1.489086	-0.062628	0.499960
C69	C	1.145828	0.108665	-0.000060
C70	C	1.645828	0.608665	0.499940
C71	C	1.239078	0.110307	-0.000073
C72	C	1.739078	0.610307	0.499927
C73	C	0.986094	0.268395	-0.000035
C74	C	1.486094	0.768395	0.499965
C75	C	0.987736	0.361645	-0.000028
C76	C	1.487736	0.861645	0.499972
N77	N	0.943934	0.163093	0.281811
N78	N	1.443934	0.663093	0.781811
N79	N	1.040577	0.066538	-0.281907
N80	N	1.540577	0.566538	0.218093
C81	C	1.108389	-0.001234	0.655737
C82	C	1.608389	0.498766	1.155737
C83	C	1.129751	-0.022582	0.531073
C84	C	1.629751	0.477418	1.031073
C85	C	1.083298	0.023834	0.468751
C86	C	1.583298	0.523834	0.968751
C87	C	1.015481	0.091604	0.531107
C88	C	1.515481	0.591604	1.031107
C89	C	0.994121	0.112959	0.655784
C90	C	1.494121	0.612959	1.155784
C91	C	0.969030	0.138027	0.468797
C92	C	1.469030	0.638027	0.968797
C93	C	0.901213	0.205797	0.531153
C94	C	1.401213	0.705797	1.031153
C95	C	0.879856	0.227148	0.655818
C96	C	1.379856	0.727148	1.155818
C97	C	0.926309	0.180731	0.718139
C98	C	1.426309	0.680731	1.218139
C99	C	0.990390	0.116672	0.344121
C100	C	1.490390	0.616672	0.844121
C101	C	0.876122	0.230865	0.344167
C102	C	1.376122	0.730865	0.844167
C103	C	0.854760	0.252214	0.468831
C104	C	1.354760	0.752214	0.968831
H105	H	0.565904	0.158668	-0.180258
H106	H	1.065904	0.658668	0.319742
H107	H	0.420550	0.261393	-0.000134
H108	H	0.920550	0.761393	0.499866
H109	H	0.950398	-0.354126	-0.180440
H110	H	1.450398	0.145874	0.319560
F111	F	0.478786	-0.005568	-0.205835
F112	F	0.978786	0.494432	0.294165
H113	H	0.418585	0.071028	0.180119
H114	H	0.918585	0.571028	0.680119
H115	H	0.563818	-0.031878	-0.000183
H116	H	1.063818	0.468122	0.499817
F117	F	0.822840	-0.422779	-0.000171
F118	F	1.322840	0.077221	0.499829
F119	F	0.782585	0.324338	0.535208
F120	F	1.282585	0.824338	1.035208
H121	H	1.034204	-0.416395	0.180112
H122	H	1.534204	0.083605	0.680112
F123	F	0.505899	0.235234	0.205478
F124	F	1.005899	0.735234	0.705478
H125	H	1.140727	-0.352181	-0.000163
H126	H	1.640727	0.147819	0.499837
F127	F	1.110579	-0.491392	-0.205625
F128	F	1.610579	0.008608	0.294375
H129	H	1.045607	0.061494	0.293362
H130	H	1.545607	0.561494	0.793362
H131	H	0.888582	-0.292203	0.180130
H132	H	1.388582	0.207797	0.680130
F133	F	1.106034	0.001111	0.336071
F134	F	1.606034	0.501111	0.836071
H135	H	0.908914	0.198110	0.819651
H136	H	1.408914	0.698110	1.319651
H137	H	1.184968	-0.077759	0.480307
H138	H	1.684968	0.422241	0.980307
F139	F	1.157826	-0.050621	0.722068
F140	F	1.657826	0.449379	1.222068
F141	F	0.807688	0.299282	0.722181
F142	F	1.307688	0.799282	1.222181
F143	F	0.826683	0.280272	0.277845
F144	F	1.326683	0.780272	0.777845
