data_functionalizedCrystal
_audit_creation_method	'MofGen! by Chris Wilmer'
_symmetry_space_group_name_H-M	'P1'
_symmetry_Int_Tables_number	1
_symmetry_cell_setting	triclinic
loop_
_symmetry_equiv_pos_as_xyz
  x,y,z
_cell_length_a	19.288835
_cell_length_b	14.853567
_cell_length_c	18.366186
_cell_angle_alpha	89.997562
_cell_angle_beta	90.017524
_cell_angle_gamma	96.620554
loop_
_atom_site_label
_atom_site_type_symbol
_atom_site_fract_x
_atom_site_fract_y
_atom_site_fract_z
O1	O	-0.921745	0.112335	-0.060686
O2	O	-0.719533	0.127535	-0.060656
O3	O	-0.826041	-0.011326	-0.060674
O4	O	-0.815238	0.251196	-0.060668
O5	O	-0.826022	-0.011333	0.060425
O6	O	-0.719515	0.127528	0.060444
O7	O	-0.921727	0.112328	0.060413
Zn8	Zn	-0.820618	0.119927	0.079655
Zn9	Zn	-0.820642	0.119936	-0.079898
O10	O	-0.815220	0.251189	0.060431
C11	C	-0.693645	0.127047	-0.000102
C12	C	-0.616536	0.125592	-0.000091
C13	C	-0.580340	0.124897	-0.066103
C14	C	-0.507888	0.123520	-0.066110
C15	C	-0.471637	0.122820	-0.000102
C16	C	-0.507841	0.123521	0.065919
C17	C	-0.580291	0.124907	0.065925
C18	C	-0.362116	0.067817	0.050461
C19	C	-0.289668	0.066425	0.050453
C20	C	-0.248178	0.118550	-0.000116
C21	C	-0.279146	0.172055	-0.050688
C22	C	-0.351596	0.173441	-0.050683
C23	C	-0.393078	0.121318	-0.000100
C24	C	-0.133422	0.116364	-0.066140
C25	C	-0.060968	0.114992	-0.066145
C26	C	-0.060924	0.114984	0.065887
C27	C	-0.133375	0.116364	0.065889
C28	C	-0.169620	0.117050	-0.000126
C29	C	-0.825542	-0.044916	-0.000127
C30	C	-0.824075	-0.144991	-0.000133
C31	C	-0.754607	-0.557120	-0.000108
C32	C	-0.881140	-0.579138	-0.000127
C33	C	-0.882519	-0.485112	-0.000132
C34	C	-0.819941	-0.427086	-0.000123
C35	C	-0.755984	-0.463085	-0.000111
C36	C	-0.946476	-0.449106	-0.000138
C37	C	-0.947857	-0.355075	-0.000141
C38	C	-0.885278	-0.297047	-0.000138
C39	C	-0.821319	-0.333051	-0.000126
C40	C	-0.758741	-0.275025	-0.000117
C41	C	-0.694780	-0.311027	-0.000110
C42	C	-0.693405	-0.405057	-0.000107
C43	C	-0.886653	-0.203017	-0.000141
C44	C	-0.760118	-0.180990	-0.000120
C45	C	0.052386	0.112822	-0.000136
C46	C	-0.024722	0.114294	-0.000135
C47	C	-0.815718	0.284778	-0.000118
C48	C	-0.817185	0.384854	-0.000117
N49	N	-0.820607	0.119920	0.188547
N50	N	-0.820659	0.119935	-0.188789
C51	C	-0.867784	0.058463	0.226639
C52	C	-0.867788	0.058459	0.302867
C53	C	-0.820622	0.119928	0.340999
C54	C	-0.773436	0.181390	0.302898
C55	C	-0.773429	0.181386	0.226671
C56	C	-0.811601	0.202072	0.461762
C57	C	-0.811614	0.202077	0.537987
C58	C	-0.820642	0.119939	0.576107
C59	C	-0.829672	0.037792	0.537992
C60	C	-0.829665	0.037788	0.461766
C61	C	-0.820625	0.119938	0.423654
C62	C	-0.867826	0.058472	0.696854
C63	C	-0.867826	0.058467	0.773083
C64	C	-0.773477	0.181406	0.773113
C65	C	-0.773474	0.181403	0.696885
C66	C	-0.820653	0.119937	0.658760
H67	H	-0.162933	0.116931	-0.119894
C68	C	-0.691282	-0.117164	-0.000114
H69	H	-0.701261	-0.056006	-0.000120
H70	H	-0.665051	-0.128051	0.042117
H71	H	-0.665073	-0.128050	-0.042348
H72	H	-0.837016	-0.029098	0.430736
H73	H	-0.162847	0.116924	0.119644
H74	H	-0.804265	0.268966	0.569014
C75	C	-0.625949	-0.247193	-0.000102
H76	H	-0.635934	-0.186038	-0.000107
H77	H	-0.599716	-0.258077	0.042129
H78	H	-0.599737	-0.258072	-0.042336
H79	H	-0.245366	0.214504	-0.091863
H80	H	-0.735071	0.231452	0.804160
H81	H	-0.264461	0.022854	0.091628
H82	H	-0.031498	0.114432	-0.119902
C83	C	-0.949972	-0.642959	-0.000136
H84	H	-0.988259	-0.608051	-0.000140
H85	H	-0.952069	-0.680102	-0.042364
H86	H	-0.952058	-0.680094	0.042102
C87	C	-0.407750	0.010460	0.106079
H88	H	-0.378933	-0.021618	0.136186
H89	H	-0.432205	0.049053	0.135335
H90	H	-0.440258	-0.031459	0.081021
C91	C	-1.015306	-0.512929	-0.000147
H92	H	-1.053595	-0.478022	-0.000146
H93	H	-1.017405	-0.550065	-0.042378
H94	H	-1.017390	-0.550069	0.042087
C95	C	-0.623057	-0.444662	-0.000089
H96	H	-0.631201	-0.508973	-0.000079
H97	H	-0.597289	-0.424734	-0.042314
H98	H	-0.597286	-0.424725	0.042151
C99	C	-0.021027	0.114512	0.138495
H100	H	0.027315	0.113673	0.129038
H101	H	-0.027714	0.167390	0.165468
H102	H	-0.038051	0.062258	0.165770
C103	C	-0.721593	0.249022	0.654978
H104	H	-0.728342	0.240215	0.604120
H105	H	-0.729199	0.309162	0.667467
H106	H	-0.675226	0.239394	0.667487
C107	C	-0.801675	0.292431	0.419838
H108	H	-0.796310	0.341352	0.453453
H109	H	-0.761232	0.294400	0.390117
H110	H	-0.841370	0.297288	0.390088
C111	C	-0.684256	-0.596718	-0.000097
H112	H	-0.692394	-0.661029	-0.000094
H113	H	-0.658492	-0.576780	-0.042322
H114	H	-0.658483	-0.576784	0.042143
H115	H	-0.735032	0.231438	0.333949
H116	H	-0.478321	0.122953	0.119664
C117	C	-0.919686	-0.009142	0.344780
H118	H	-0.912930	-0.000338	0.395638
H119	H	-0.966047	0.000494	0.332267
H120	H	-0.912088	-0.069292	0.332299
H121	H	-0.999938	-0.325770	-0.000148
C122	C	-0.956998	-0.163412	-0.000146
H123	H	-0.948857	-0.099101	-0.000143
H124	H	-0.982779	-0.183349	-0.042376
H125	H	-0.982756	-0.183344	0.042089
C126	C	-0.839598	-0.052565	0.579913
H127	H	-0.838301	-0.040802	0.630769
H128	H	-0.883372	-0.084869	0.567408
H129	H	-0.803234	-0.087761	0.567433
H130	H	-0.376806	0.217008	-0.091859
C131	C	-0.919709	-0.009146	0.654910
H132	H	-0.912953	-0.000340	0.604056
H133	H	-0.912108	-0.069287	0.667409
H134	H	-0.966077	0.000486	0.667382
H135	H	-0.609761	0.125473	0.119682
H136	H	-0.906197	0.008412	0.195600
H137	H	-0.735011	0.231433	0.195656
C138	C	-0.620204	0.125664	-0.138717
H139	H	-0.588265	0.125061	-0.178033
H140	H	-0.653724	0.073646	-0.141463
H141	H	-0.643210	0.178775	-0.141457
C142	C	-0.468063	0.122764	-0.138727
H143	H	-0.500026	0.123370	-0.178041
H144	H	-0.434549	0.174787	-0.141468
H145	H	-0.445055	0.069657	-0.141474
H146	H	-0.906241	0.008416	0.804098
