data_functionalizedCrystal
_audit_creation_method	'MofGen! by Chris Wilmer'
_symmetry_space_group_name_H-M	'P1'
_symmetry_Int_Tables_number	1
_symmetry_cell_setting	triclinic
loop_
_symmetry_equiv_pos_as_xyz
  x,y,z
_cell_length_a	18.215407
_cell_length_b	21.295417
_cell_length_c	21.295411
_cell_angle_alpha	89.971282
_cell_angle_beta	89.983429
_cell_angle_gamma	90.030955
loop_
_atom_site_label
_atom_site_type_symbol
_atom_site_fract_x
_atom_site_fract_y
_atom_site_fract_z
Zn1	Zn	1.125019	-0.250629	-0.355914
Zn2	Zn	1.124923	-0.355894	-0.250639
Zn3	Zn	1.001959	-0.250644	-0.250658
Zn4	Zn	1.001906	-0.355866	-0.355870
O5	O	1.063452	-0.303258	-0.303270
O6	O	1.227991	-0.264599	-0.341959
O7	O	1.108593	-0.341951	-0.162552
O8	O	1.018346	-0.162552	-0.264647
O9	O	1.227920	-0.341937	-0.264614
O10	O	1.108758	-0.162542	-0.341977
O11	O	1.018252	-0.264623	-0.162566
O12	O	0.898968	-0.264596	-0.264605
O13	O	1.018255	-0.341888	-0.443966
O14	O	0.898929	-0.341902	-0.341904
O15	O	1.108706	-0.264571	-0.443997
O16	O	1.108542	-0.443980	-0.264572
O17	O	1.018162	-0.443959	-0.341885
C18	C	0.872246	-0.303248	-0.303252
C19	C	0.790447	-0.303258	-0.303259
C20	C	1.063355	-0.466810	-0.303235
C21	C	1.063381	-0.536778	-0.303242
C22	C	0.602252	-0.343575	-0.343458
C23	C	0.525393	-0.343577	-0.343466
C24	C	0.525404	-0.262953	-0.263096
C25	C	0.602261	-0.262949	-0.263092
C26	C	0.640683	-0.303263	-0.303272
C27	C	0.486967	-0.303270	-0.303284
C28	C	0.403633	-0.303271	-0.303292
C29	C	0.724022	-0.303260	-0.303265
C30	C	1.110484	-0.569635	-0.263026
C31	C	1.110519	-0.635377	-0.263040
C32	C	1.063437	-0.668261	-0.303263
C33	C	1.016331	-0.635396	-0.343487
C34	C	1.016303	-0.569655	-0.343476
N35	N	0.999058	-0.771527	-0.308056
N36	N	0.999087	-0.833978	-0.308063
C37	C	1.063520	-0.866335	-0.303299
N38	N	1.127924	-0.833881	-0.298517
N39	N	1.127895	-0.771424	-0.298507
C40	C	1.063463	-0.739546	-0.303280
C41	C	1.110664	-0.970477	-0.263097
C42	C	1.110699	-1.036221	-0.263115
C43	C	1.016506	-1.036238	-0.343559
C44	C	1.016476	-0.970496	-0.343544
C45	C	1.063554	-0.937619	-0.303309
C46	C	1.255405	-0.303270	-0.303289
C47	C	1.337204	-0.303274	-0.303297
C48	C	1.063486	-0.303225	-0.467461
C49	C	1.063500	-0.303210	-0.537429
C50	C	1.063569	-0.139068	-0.303319
C51	C	1.063619	-0.069100	-0.303340
C52	C	1.110623	-0.343344	-1.036880
C53	C	1.110610	-0.343364	-0.971138
C54	C	1.063570	-0.303112	-0.938268
C55	C	1.016526	-0.262849	-0.971147
C56	C	1.016536	-0.262834	-1.036889
N57	N	1.057948	-0.248033	-0.835063
N58	N	1.057944	-0.248048	-0.772612
C59	C	1.063537	-0.303155	-0.740194
N60	N	1.069150	-0.358246	-0.772586
N61	N	1.069159	-0.358230	-0.835043
C62	C	1.063554	-0.303124	-0.866983
C63	C	1.110560	-0.343441	-0.636037
C64	C	1.110541	-0.343462	-0.570293
C65	C	1.016462	-0.262941	-0.570304
C66	C	1.016477	-0.262925	-0.636047
C67	C	1.063529	-0.303174	-0.668909
C68	C	1.063460	-0.303246	-0.139719
C69	C	1.063589	-0.303083	-0.069751
H70	H	0.633532	-0.376399	-0.376177
H71	H	0.494112	-0.230132	-0.230382
C72	C	0.964717	-0.218662	-0.534157
C73	C	0.964704	-0.218675	-0.461844
C74	C	0.912956	-0.174395	-0.425693
C75	C	0.861221	-0.130103	-0.461854
C76	C	0.861233	-0.130089	-0.534171
C77	C	0.912981	-0.174368	-0.570322
H78	H	1.003003	-0.251464	-0.435071
H79	H	0.912948	-0.174406	-0.372159
H80	H	0.822914	-0.097325	-0.435093
H81	H	0.822934	-0.097300	-0.560944
H82	H	0.912989	-0.174357	-0.623856
H83	H	0.633553	-0.230118	-0.230367
H84	H	1.149000	-0.943708	-0.230337
H85	H	0.494105	-0.376402	-0.376191
C86	C	1.162276	-0.533474	-0.218773
C87	C	1.156327	-0.542570	-0.147209
C88	C	1.208122	-0.506409	-0.102957
C89	C	1.265865	-0.461153	-0.130269
C90	C	1.271816	-0.452056	-0.201837
C91	C	1.220022	-0.488216	-0.246089
H92	H	1.113580	-0.576073	-0.126988
H93	H	1.203716	-0.513144	-0.049977
H94	H	1.304206	-0.434385	-0.097511
H95	H	1.314563	-0.418553	-0.222058
H96	H	1.224428	-0.481482	-0.299068
C97	C	1.162327	-0.671530	-0.218794
C98	C	1.214107	-0.635368	-0.174537
C99	C	1.265912	-0.671518	-0.130288
C100	C	1.265937	-0.743831	-0.130298
C101	C	1.214155	-0.779997	-0.174557
C102	C	1.162350	-0.743847	-0.218805
H103	H	1.214090	-0.581834	-0.174528
H104	H	1.304245	-0.644745	-0.097525
H105	H	1.304287	-0.770592	-0.097543
H106	H	1.214172	-0.833531	-0.174565
H107	H	1.124017	-0.770620	-0.251568
H108	H	0.978225	-0.230076	-0.944381
C109	C	0.964541	-0.671564	-0.387733
C110	C	0.964566	-0.743877	-0.387745
C111	C	0.912777	-0.780044	-0.431996
C112	C	0.860963	-0.743899	-0.476235
C113	C	0.860935	-0.671582	-0.476225
C114	C	0.912724	-0.635415	-0.431974
H115	H	1.002924	-0.770638	-0.354995
H116	H	0.912798	-0.833578	-0.432003
H117	H	0.822625	-0.770673	-0.508992
H118	H	0.822578	-0.644822	-0.508975
H119	H	0.912704	-0.581881	-0.431967
H120	H	0.977946	-0.542902	-0.376225
H121	H	1.149061	-1.062972	-0.230368
H122	H	0.978118	-0.943742	-0.376288
C123	C	1.162354	-0.387650	-0.934969
C124	C	1.214109	-0.431921	-0.971116
C125	C	1.265855	-0.476206	-0.934950
C126	C	1.265845	-0.476219	-0.862637
C127	C	1.214088	-0.431946	-0.826486
C128	C	1.162342	-0.387662	-0.862652
H129	H	1.214118	-0.431913	-1.024650
H130	H	1.304169	-0.508980	-0.961711
H131	H	1.304150	-0.509001	-0.835865
H132	H	1.214079	-0.431954	-0.772952
H133	H	1.124028	-0.354888	-0.835891
C134	C	0.964799	-0.218540	-1.073050
C135	C	0.881132	-0.223676	-1.064002
C136	C	0.829397	-0.179380	-1.100165
C137	C	0.861329	-0.129949	-1.145376
C138	C	0.945000	-0.124811	-1.154427
C139	C	0.996735	-0.169107	-1.118264
H140	H	0.857490	-0.260270	-1.030532
H141	H	0.767458	-0.183184	-1.093465
H142	H	0.823031	-0.097159	-1.172146
H143	H	0.968642	-0.088217	-1.187897
H144	H	1.058675	-0.165303	-1.124964
H145	H	0.978174	-1.063011	-0.376312
H146	H	1.148935	-0.376120	-1.063633
C147	C	1.162295	-0.387725	-0.672197
C148	C	1.156219	-0.459288	-0.663142
C149	C	1.207947	-0.503576	-0.699303
C150	C	1.265751	-0.476301	-0.744520
C151	C	1.271829	-0.404734	-0.753578
C152	C	1.220101	-0.360447	-0.717416
H153	H	1.113427	-0.479482	-0.629668
H154	H	1.203448	-0.556554	-0.692598
H155	H	1.304043	-0.509085	-0.771289
H156	H	1.314621	-0.384541	-0.787052
H157	H	1.224601	-0.307468	-0.724121
H158	H	1.148839	-0.376253	-0.543531
H159	H	0.978179	-0.230138	-0.662811
