data_functionalizedCrystal
_audit_creation_method	'MofGen! by Chris Wilmer'
_symmetry_space_group_name_H-M	'P1'
_symmetry_Int_Tables_number	1
_symmetry_cell_setting	triclinic
loop_
_symmetry_equiv_pos_as_xyz
  x,y,z
_cell_length_a	16.992694
_cell_length_b	16.992695
_cell_length_c	15.455313
_cell_angle_alpha	92.847427
_cell_angle_beta	87.142206
_cell_angle_gamma	90.668223
loop_
_atom_site_label
_atom_site_type_symbol
_atom_site_fract_x
_atom_site_fract_y
_atom_site_fract_z
O1	O	1.054080	0.163694	-0.072023
O2	O	1.554080	0.663694	0.427977
O3	O	0.825681	0.161862	-0.072048
O4	O	1.325681	0.661862	0.427952
O5	O	0.938965	0.048579	-0.072029
O6	O	1.438965	0.548579	0.427971
O7	O	0.940797	0.276978	-0.072042
O8	O	1.440797	0.776978	0.427958
O9	O	0.932485	0.055028	0.072232
O10	O	1.432485	0.555028	0.572232
O11	O	0.819202	0.168312	0.072213
O12	O	1.319202	0.668312	0.572213
O13	O	1.047601	0.170144	0.072238
O14	O	1.547601	0.670144	0.572238
Cu15	Cu	0.932809	0.169817	0.085398
Cu16	Cu	1.432809	0.669817	0.585398
Cu17	Cu	0.940473	0.162189	-0.085207
Cu18	Cu	1.440473	0.662189	0.414793
O19	O	0.934317	0.283428	0.072219
O20	O	1.434317	0.783428	0.572219
C21	C	0.793081	0.162731	0.000079
C22	C	1.293081	0.662731	0.500079
C23	C	0.705597	0.155702	0.000070
C24	C	1.205597	0.655702	0.500070
C25	C	0.933369	0.022443	0.000102
C26	C	1.433369	0.522443	0.500102
C27	C	0.926341	-0.065041	0.000101
C28	C	1.426341	0.434959	0.500101
C29	C	0.659607	0.223520	0.000066
C30	C	1.159607	0.723520	0.500066
C31	C	0.577405	0.216911	0.000079
C32	C	1.077405	0.716911	0.500079
C33	C	0.541197	0.142484	0.000088
C34	C	1.041197	0.642484	0.500088
C35	C	0.587193	0.074661	0.000094
C36	C	1.087193	0.574661	0.500094
C37	C	0.669393	0.081271	0.000088
C38	C	1.169393	0.581271	0.500088
C39	C	0.295881	0.115091	0.000113
C40	C	0.795881	0.615091	0.500113
C41	C	0.213676	0.108486	0.000116
C42	C	0.713676	0.608486	0.500116
C43	C	0.203893	0.250737	0.000103
C44	C	0.703893	0.750737	0.500103
C45	C	0.286095	0.257340	0.000091
C46	C	0.786095	0.757340	0.500091
C47	C	0.332084	0.189517	0.000102
C48	C	0.832084	0.689517	0.500102
N49	N	0.457174	0.135727	0.000098
N50	N	0.957174	0.635727	0.500098
N51	N	0.416105	0.196275	0.000098
N52	N	0.916105	0.696275	0.500098
C53	C	0.994158	-0.111032	0.000109
C54	C	1.494158	0.388968	0.500109
C55	C	0.987550	-0.193233	0.000100
C56	C	1.487550	0.306767	0.500100
C57	C	0.913123	-0.229442	0.000089
C58	C	1.413123	0.270558	0.500089
C59	C	0.845300	-0.183445	0.000078
C60	C	1.345300	0.316555	0.500078
C61	C	0.851910	-0.101246	0.000081
C62	C	1.351910	0.398754	0.500081
C63	C	0.885729	-0.474757	0.000074
C64	C	1.385729	0.025243	0.500074
C65	C	0.879124	-0.556962	0.000074
C66	C	1.379124	-0.056962	0.500074
C67	C	1.021375	-0.566744	0.000094
C68	C	1.521375	-0.066744	0.500094
C69	C	1.027977	-0.484543	0.000102
C70	C	1.527977	0.015457	0.500102
C71	C	0.960155	-0.438554	0.000087
C72	C	1.460155	0.061446	0.500087
N73	N	0.906366	-0.313464	0.000082
N74	N	1.406366	0.186536	0.500082
N75	N	0.966913	-0.354533	0.000087
N76	N	1.466913	0.145467	0.500087
C77	C	1.080201	0.169275	0.000109
C78	C	1.580201	0.669275	0.500109
C79	C	1.167685	0.176304	0.000113
C80	C	1.667685	0.676304	0.500113
C81	C	0.939913	0.309563	0.000087
C82	C	1.439913	0.809563	0.500087
C83	C	0.946942	0.397047	0.000082
C84	C	1.446942	0.897047	0.500082
N85	N	0.927425	0.175181	0.205392
N86	N	1.427425	0.675181	0.705392
N87	N	0.945863	0.156819	-0.205202
N88	N	1.445863	0.656819	0.294798
C89	C	0.975571	0.127074	0.250795
C90	C	1.475571	0.627074	0.750795
C91	C	0.971507	0.131139	0.341602
C92	C	1.471507	0.631139	0.841602
C93	C	0.919301	0.183315	0.387005
C94	C	1.419301	0.683315	0.887005
C95	C	0.871149	0.231424	0.341596
C96	C	1.371149	0.731424	0.841596
C97	C	0.875210	0.227355	0.250791
C98	C	1.375210	0.727355	0.750791
C99	C	0.901772	0.200858	0.658584
C100	C	1.401772	0.700858	1.158584
C101	C	0.897717	0.204926	0.749395
C102	C	1.397717	0.704926	1.249395
C103	C	0.998074	0.104639	0.749395
C104	C	1.498074	0.604639	1.249395
C105	C	1.002133	0.100578	0.658588
C106	C	1.502133	0.600578	1.158588
C107	C	0.953979	0.148684	0.613187
C108	C	1.453979	0.648684	1.113187
N109	N	0.915147	0.187473	0.479825
N110	N	1.415147	0.687473	0.979825
N111	N	0.958129	0.144522	0.520369
N112	N	1.458129	0.644522	1.020369
H113	H	0.539963	0.272136	0.000075
H114	H	1.039963	0.772136	0.500075
C115	C	1.121267	-0.401092	-0.074046
C116	C	1.621267	0.098908	0.425954
C117	C	1.109792	-0.444747	0.000109
C118	C	1.609792	0.055253	0.500109
H119	H	1.171775	-0.376521	-0.074035
H120	H	1.671775	0.123479	0.425965
H121	H	1.117994	-0.435201	-0.124345
H122	H	1.617994	0.064799	0.375655
H123	H	1.081820	-0.361936	-0.074040
H124	H	1.581820	0.138064	0.425960
H125	H	1.149235	-0.483906	0.000100
H126	H	1.649235	0.016094	0.500100
H127	H	1.113072	-0.410635	0.050421
H128	H	1.613072	0.089365	0.550421
C129	C	0.865337	0.332960	0.630628
C130	C	1.365337	0.832960	1.130628
C131	C	0.848849	0.253746	0.608691
C132	C	1.348849	0.753746	1.108691
H133	H	0.832666	0.365613	0.599820
H134	H	1.332666	0.865613	1.099820
H135	H	0.855451	0.342840	0.691200
H136	H	1.355451	0.842840	1.191200
H137	H	0.919075	0.344152	0.615727
H138	H	1.419075	0.844152	1.115727
H139	H	0.795112	0.242553	0.623598
H140	H	1.295112	0.742553	1.123598
H141	H	0.858728	0.243863	0.548105
H142	H	1.358728	0.743863	1.048105
H143	H	0.784700	-0.212933	0.000063
H144	H	1.284700	0.287067	0.500063
C145	C	0.820370	0.282198	0.480793
C146	C	1.320370	0.782198	0.980793
C147	C	0.813764	0.288779	0.391502
C148	C	1.313764	0.788779	0.891502
H149	H	0.784947	0.317613	0.511599
H150	H	1.284947	0.817613	1.011599
H151	H	0.807864	0.229794	0.495684
H152	H	1.307864	0.729794	0.995684
H153	H	0.872780	0.294737	0.495654
H154	H	1.372780	0.794737	0.995654
H155	H	0.761356	0.276235	0.376640
H156	H	1.261356	0.776235	0.876640
H157	H	0.826266	0.341195	0.376605
H158	H	1.326266	0.841195	0.876605
C159	C	0.268165	0.397286	0.000093
C160	C	0.768165	0.897286	0.500093
C161	C	0.325893	0.339153	0.000089
C162	C	0.825893	0.839153	0.500089
H163	H	0.292736	0.447793	0.000095
H164	H	0.792736	0.947793	0.500095
H165	H	0.238562	0.389502	-0.050209
H166	H	0.738562	0.889502	0.449791
H167	H	0.234053	0.393992	0.050406
H168	H	0.734053	0.893992	0.550406
H169	H	0.360001	0.342442	-0.050227
H170	H	0.860001	0.842442	0.449773
H171	H	0.355508	0.346939	0.050396
H172	H	0.855508	0.846939	0.550396
H173	H	0.166440	0.305954	0.000096
H174	H	0.666440	0.805954	0.500096
C175	C	0.123584	0.021851	0.074291
C176	C	0.623584	0.521851	0.574291
C177	C	0.173874	0.026669	0.000133
C178	C	0.673874	0.526669	0.500133
H179	H	0.099010	-0.028655	0.074296
H180	H	0.599010	0.471345	0.574296
H181	H	0.153194	0.029634	0.124588
H182	H	0.653194	0.529634	0.624588
H183	H	0.084433	0.061300	0.074275
H184	H	0.584433	0.561300	0.574275
H185	H	0.213029	-0.012776	0.000152
H186	H	0.713029	0.487224	0.500152
H187	H	0.144262	0.018878	-0.050177
H188	H	0.644262	0.518878	0.449823
C189	C	0.785826	-0.640407	0.074220
C190	C	1.285826	-0.140407	0.574220
C191	C	0.797306	-0.596760	0.000059
C192	C	1.297306	-0.096760	0.500059
H193	H	0.735315	-0.664971	0.074214
H194	H	1.235315	-0.164971	0.574214
H195	H	0.825265	-0.679559	0.074223
H196	H	1.325265	-0.179559	0.574223
H197	H	0.789099	-0.606286	0.124520
H198	H	1.289099	-0.106286	0.624520
H199	H	0.794038	-0.630882	-0.050241
H200	H	1.294038	-0.130882	0.449759
H201	H	0.757855	-0.557604	0.000048
H202	H	1.257855	-0.057604	0.500048
H203	H	0.333316	0.059864	0.000122
H204	H	0.833316	0.559864	0.500122
C205	C	0.465533	0.001366	0.000101
C206	C	0.965533	0.501366	0.500101
C207	C	0.547395	-0.007152	0.000103
C208	C	1.047395	0.492848	0.500103
H209	H	0.440967	-0.049144	0.000099
H210	H	0.940967	0.450856	0.500099
H211	H	0.447802	0.031750	0.050404
H212	H	0.947802	0.531750	0.550404
H213	H	0.452313	0.027259	-0.050211
H214	H	0.952313	0.527259	0.449789
H215	H	0.560615	-0.033039	0.050418
H216	H	1.060615	0.466961	0.550418
H217	H	0.565132	-0.037548	-0.050205
H218	H	1.065132	0.462452	0.449795
C219	C	0.977332	0.029653	0.443723
C220	C	1.477332	0.529653	0.943723
C221	C	1.024436	0.078259	0.391502
C222	C	1.524436	0.578259	0.891502
H223	H	1.010013	-0.002998	0.474522
H224	H	1.510013	0.497002	0.974522
H225	H	0.945667	0.061303	0.483760
H226	H	1.445667	0.561303	0.983760
H227	H	0.944381	-0.002320	0.408299
H228	H	1.444381	0.497680	0.908299
H229	H	1.057384	0.110237	0.426927
H230	H	1.557384	0.610237	0.926927
H231	H	1.056115	0.046605	0.351460
H232	H	1.556115	0.546605	0.851460
H233	H	1.054764	-0.081557	0.000124
H234	H	1.554764	0.418443	0.500124
H235	H	0.706838	0.026046	0.000090
H236	H	1.206838	0.526046	0.500090
C237	C	0.710638	-0.099828	0.000066
C238	C	1.210638	0.400172	0.500066
C239	C	0.777362	-0.050690	0.000074
C240	C	1.277362	0.449310	0.500074
H241	H	0.664616	-0.068615	0.000064
H242	H	1.164616	0.431385	0.500064
H243	H	0.713280	-0.134337	-0.050237
H244	H	1.213280	0.365663	0.449763
H245	H	0.708763	-0.129847	0.050378
H246	H	1.208763	0.370153	0.550378
H247	H	0.779241	-0.020675	-0.050241
H248	H	1.279241	0.479325	0.449759
H249	H	0.774720	-0.016167	0.050382
H250	H	1.274720	0.483833	0.550382
H251	H	1.042774	-0.230675	0.000109
H252	H	1.542774	0.269325	0.500109
C253	C	1.100916	0.001849	0.667712
C254	C	1.600916	0.501849	1.167712
C255	C	1.059516	0.043220	0.608683
C256	C	1.559516	0.543220	1.108683
H257	H	1.136339	-0.033563	0.636901
H258	H	1.636339	0.466437	1.136901
H259	H	1.129699	0.037993	0.703116
H260	H	1.629699	0.537993	1.203116
H261	H	1.064784	-0.026950	0.703142
H262	H	1.564784	0.473050	1.203142
H263	H	1.095647	0.072024	0.573257
H264	H	1.595647	0.572024	1.073257
H265	H	1.030730	0.007070	0.573264
H266	H	1.530730	0.507070	1.073264
C267	C	1.099798	-0.668165	-0.074063
C268	C	1.599798	-0.168165	0.425937
C269	C	1.095923	-0.617296	0.000099
C270	C	1.595923	-0.117296	0.500099
H271	H	1.145826	-0.699369	-0.074064
H272	H	1.645826	-0.199369	0.425936
H273	H	1.054532	-0.701490	-0.074061
H274	H	1.554532	-0.201490	0.425939
H275	H	1.101675	-0.638130	-0.124362
H276	H	1.601675	-0.138130	0.375638
H277	H	1.094039	-0.647332	0.050399
H278	H	1.594039	-0.147332	0.550399
H279	H	1.141200	-0.583967	0.000105
H280	H	1.641200	-0.083967	0.500105
H281	H	0.830503	-0.437322	0.000061
H282	H	1.330503	0.062678	0.500061
C283	C	0.775612	0.326899	0.259906
C284	C	1.275612	0.826899	0.759906
C285	C	0.822291	0.280239	0.200881
C286	C	1.322291	0.780239	0.700881
H287	H	0.742944	0.359550	0.229093
H288	H	1.242944	0.859550	0.729093
H289	H	0.743663	0.293928	0.295332
H290	H	1.243663	0.793928	0.795332
H291	H	0.808577	0.358873	0.295315
H292	H	1.308577	0.858873	0.795315
H293	H	0.789326	0.248261	0.165476
H294	H	1.289326	0.748261	0.665476
H295	H	0.854243	0.313214	0.165440
H296	H	1.354243	0.813214	0.665440
H297	H	1.018087	0.084591	0.213834
H298	H	1.518087	0.584591	0.713834
H299	H	0.689081	0.284126	0.000058
H300	H	1.189081	0.784126	0.500058
C301	C	0.763077	0.243764	0.777387
C302	C	1.263077	0.743764	1.277387
C303	C	0.840320	0.262270	0.799312
C304	C	1.340320	0.762270	1.299312
H305	H	0.727646	0.279161	0.808211
H306	H	1.227646	0.779161	1.308211
H307	H	0.758602	0.248235	0.716819
H308	H	1.258602	0.748235	1.216819
H309	H	0.750595	0.191347	0.792279
H310	H	1.250595	0.691347	1.292279
H311	H	0.852804	0.314685	0.784414
H312	H	1.352804	0.814685	1.284414
H313	H	0.844798	0.257806	0.859894
H314	H	1.344798	0.757806	1.359894
H315	H	1.037278	0.065473	0.786369
H316	H	1.537278	0.565473	1.286369
