data_functionalizedCrystal
_audit_creation_method	'MofGen! by Chris Wilmer'
_symmetry_space_group_name_H-M	'P1'
_symmetry_Int_Tables_number	1
_symmetry_cell_setting	triclinic
loop_
_symmetry_equiv_pos_as_xyz
  x,y,z
_cell_length_a	6.817900
_cell_length_b	11.102289
_cell_length_c	13.212919
_cell_angle_alpha	87.856906
_cell_angle_beta	106.298290
_cell_angle_gamma	108.605707
loop_
_atom_site_label
_atom_site_type_symbol
_atom_site_fract_x
_atom_site_fract_y
_atom_site_fract_z
V1	V	-4.063263	-0.138431	-0.325526
O2	O	-4.023214	0.045146	-0.319330
O3	O	-4.040370	-0.311507	-0.323300
O4	O	-4.018993	-0.119411	-0.467500
O5	O	-4.044740	-0.148280	-0.174132
V6	V	-4.543051	-0.118469	-0.307418
O7	O	-4.332715	-0.182220	-0.365248
O8	O	-4.723796	-0.074680	-0.267697
O9	O	-4.342737	0.054607	-0.309645
O10	O	-4.700496	-0.302046	-0.313615
O11	O	-4.678971	-0.108620	-0.458813
O12	O	-4.364114	-0.137489	-0.165445
C13	C	-3.891442	-0.354227	-0.318164
C14	C	-3.954039	-0.495610	-0.317290
C15	C	-4.166682	-0.567907	-0.322088
C16	C	-4.225491	-0.700752	-0.321276
C17	C	-3.858990	-0.688991	-0.310863
C18	C	-3.800188	-0.556149	-0.311683
C19	C	-4.378277	-0.574698	-0.328095
C20	C	-4.437086	-0.707543	-0.327282
C21	C	-3.864173	-0.109188	-0.502104
C22	C	-3.909429	-0.094783	-0.618168
C23	C	-4.110440	-0.297084	-0.866094
C24	C	-4.152966	-0.283555	-0.975147
C25	C	-4.037022	-0.054197	-0.945330
C26	C	-3.994497	-0.067726	-0.836277
C27	C	-4.031206	-0.189174	-0.796663
C28	C	-3.988665	-0.202701	-0.687608
C29	C	-3.872737	0.026655	-0.657793
C30	C	-3.915263	0.040184	-0.766846
C31	C	-4.155008	0.097320	-0.314777
C32	C	-4.071649	0.238703	-0.315658
C33	C	-4.182277	-0.147716	-0.130835
C34	C	-4.116258	-0.162115	-0.014770
H35	H	-4.498968	-0.740708	-0.255964
Cl36	Cl	-3.990898	0.098466	-0.995151
H37	H	-3.733738	-0.738297	-0.306300
Cl38	Cl	-4.034804	-0.355375	-0.637808
Cl39	Cl	-3.773104	0.162323	-0.570501
H40	H	-4.140307	-0.395970	-0.833840
Cl41	Cl	-4.533585	-0.531541	-0.445326
H42	H	-3.627044	-0.497290	-0.307789
Cl43	Cl	-4.395222	-0.505570	-0.214442
H44	H	-4.557426	-0.756522	-0.404631
H45	H	-4.217483	-0.371427	-1.031675
Cl46	Cl	-3.869121	0.192852	-0.816658
