data_functionalizedCrystal
_audit_creation_method	'MofGen! by Chris Wilmer'
_symmetry_space_group_name_H-M	'P1'
_symmetry_Int_Tables_number	1
_symmetry_cell_setting	triclinic
loop_
_symmetry_equiv_pos_as_xyz
  x,y,z
_cell_length_a	6.817900
_cell_length_b	11.168130
_cell_length_c	12.200875
_cell_angle_alpha	92.527366
_cell_angle_beta	107.143593
_cell_angle_gamma	108.508653
loop_
_atom_site_label
_atom_site_type_symbol
_atom_site_fract_x
_atom_site_fract_y
_atom_site_fract_z
V1	V	-4.093963	-0.174991	-0.357670
O2	O	-4.053850	0.008114	-0.350852
O3	O	-4.070359	-0.346695	-0.355233
O4	O	-4.063310	-0.172429	-0.513658
O5	O	-4.060948	-0.167358	-0.191330
V6	V	-4.572078	-0.153075	-0.337773
O7	O	-4.367084	-0.223068	-0.401315
O8	O	-4.749154	-0.104998	-0.294128
O9	O	-4.372475	0.018629	-0.340211
O10	O	-4.729587	-0.336180	-0.344591
O11	O	-4.722490	-0.160708	-0.504113
O12	O	-4.379524	-0.155637	-0.181785
C13	C	-3.920818	-0.388548	-0.349593
C14	C	-3.982925	-0.528919	-0.348640
C15	C	-4.062984	-0.608716	-0.448049
C16	C	-4.127175	-0.753797	-0.447066
C17	C	-3.911825	-0.166254	-0.551679
C18	C	-3.968211	-0.165295	-0.679200
C19	C	-4.071406	-0.163541	-0.912674
C20	C	-4.013972	-0.164516	-0.782752
C21	C	-4.185359	0.060476	-0.345847
C22	C	-4.102491	0.200845	-0.346808
C23	C	-4.194351	-0.161816	-0.143759
C24	C	-4.117203	-0.162769	-0.016236
H25	H	-4.033854	-0.730605	-0.261698
C26	C	-4.091389	-0.555927	-0.564016
C27	C	-4.319849	-0.595020	-0.656038
C28	C	-4.348259	-0.542236	-0.772010
C29	C	-4.148208	-0.450359	-0.795959
C30	C	-3.919732	-0.411262	-0.703934
C31	C	-3.891322	-0.464045	-0.587962
H32	H	-4.467954	-0.663037	-0.638312
H33	H	-4.517394	-0.571179	-0.840132
H34	H	-4.169239	-0.411286	-0.881808
H35	H	-3.771628	-0.343245	-0.721660
H36	H	-3.722188	-0.435102	-0.519839
H37	H	-3.961893	-0.568008	-0.262804
C38	C	-4.219913	-0.846404	-0.562047
C39	C	-4.432433	-0.849469	-0.654313
C40	C	-4.525174	-0.942079	-0.769298
C41	C	-4.405394	-1.031625	-0.792017
C42	C	-4.192862	-1.028564	-0.699749
C43	C	-4.100121	-0.935954	-0.584763
H44	H	-4.521112	-0.783178	-0.637498
H45	H	-4.682505	-0.944345	-0.837602
H46	H	-4.474047	-1.100181	-0.877136
H47	H	-4.104183	-1.094854	-0.716564
H48	H	-3.942789	-0.933688	-0.516460
