data_functionalizedCrystal
_audit_creation_method	'MofGen! by Chris Wilmer'
_symmetry_space_group_name_H-M	'P1'
_symmetry_Int_Tables_number	1
_symmetry_cell_setting	triclinic
loop_
_symmetry_equiv_pos_as_xyz
  x,y,z
_cell_length_a	6.817900
_cell_length_b	11.102210
_cell_length_c	11.168136
_cell_angle_alpha	91.983133
_cell_angle_beta	108.508683
_cell_angle_gamma	108.604261
loop_
_atom_site_label
_atom_site_type_symbol
_atom_site_fract_x
_atom_site_fract_y
_atom_site_fract_z
V1	V	-4.110379	-0.175857	-0.393696
O2	O	-4.069443	0.008431	-0.386205
O3	O	-4.087154	-0.348677	-0.391001
O4	O	-4.086662	-0.173161	-0.565402
O5	O	-4.069939	-0.168300	-0.210596
V6	V	-4.587546	-0.153813	-0.371796
O7	O	-4.385579	-0.224213	-0.441736
O8	O	-4.762543	-0.105458	-0.323757
O9	O	-4.387564	0.019006	-0.374492
O10	O	-4.745879	-0.338102	-0.379288
O11	O	-4.745383	-0.161371	-0.554897
O12	O	-4.388057	-0.156510	-0.200091
C13	C	-3.937481	-0.390806	-0.384790
C14	C	-3.999944	-0.532089	-0.383730
C15	C	-4.028178	-0.713077	-0.266622
C16	C	-3.969463	-0.580324	-0.267603
C17	C	-4.089125	-0.616613	-0.498884
C18	C	-4.147823	-0.749362	-0.497901
C19	C	-3.936851	-0.166917	-0.607254
C20	C	-3.998910	-0.165856	-0.747624
C21	C	-4.201434	-0.171410	-0.816316
C22	C	-4.265579	-0.170314	-0.961397
C23	C	-4.200579	0.061129	-0.380700
C24	C	-4.117356	0.202410	-0.381767
C25	C	-4.201209	-0.162758	-0.158232
C26	C	-4.118387	-0.163813	-0.017861
H27	H	-4.327329	-0.176969	-0.767717
H28	H	-4.220436	-0.818177	-0.591672
C29	C	-3.887230	-0.157712	-0.939039
C30	C	-3.899935	-0.267768	-0.879960
C31	C	-3.687041	-0.262199	-0.807326
H32	H	-3.803035	-0.153562	-0.993159
H33	H	-3.818402	-0.083432	-0.875702
H34	H	-3.968731	-0.342029	-0.943289
H35	H	-3.984089	-0.271940	-0.825819
H36	H	-3.618213	-0.187919	-0.743989
H37	H	-3.602863	-0.258046	-0.861455
H38	H	-3.695634	-0.336864	-0.767223
H39	H	-4.439077	-0.175075	-1.020448
C40	C	-3.872515	-0.488355	-0.142718
C41	C	-3.827567	-0.361772	-0.168425
C42	C	-3.738227	-0.277014	-0.053407
H43	H	-3.975117	-0.506625	-0.098984
H44	H	-3.739764	-0.498443	-0.090998
H45	H	-3.960301	-0.351688	-0.220124
H46	H	-3.724949	-0.343461	-0.212141
H47	H	-3.605475	-0.287102	-0.001687
H48	H	-3.840839	-0.295296	-0.009681
H49	H	-3.707699	-0.191118	-0.070832
H50	H	-3.873006	-0.160279	-0.796221
H51	H	-4.113926	-0.577328	-0.593436
H52	H	-4.003359	-0.752339	-0.172058
