data_functionalizedCrystal
_audit_creation_method	'MofGen! by Chris Wilmer'
_symmetry_space_group_name_H-M	'P1'
_symmetry_Int_Tables_number	1
_symmetry_cell_setting	triclinic
loop_
_symmetry_equiv_pos_as_xyz
  x,y,z
_cell_length_a	15.298114
_cell_length_b	15.298852
_cell_length_c	15.296720
_cell_angle_alpha	88.404329
_cell_angle_beta	69.221067
_cell_angle_gamma	72.671317
loop_
_atom_site_label
_atom_site_type_symbol
_atom_site_fract_x
_atom_site_fract_y
_atom_site_fract_z
Zn1	Zn	1.464152	-0.637501	0.145977
Zn2	Zn	1.964152	-0.137501	0.645977
Zn3	Zn	1.517903	-0.766098	-0.036426
Zn4	Zn	2.017903	-0.266098	0.463574
Zn5	Zn	1.326259	-0.593064	0.026734
Zn6	Zn	1.826259	-0.093064	0.526734
Zn7	Zn	1.335540	-0.766083	0.145999
Zn8	Zn	1.835540	-0.266083	0.645999
O9	O	1.410963	-0.690687	0.070571
O10	O	1.910963	-0.190687	0.570571
O11	O	1.605310	-0.673164	0.095339
O12	O	2.105310	-0.173164	0.595339
O13	O	1.511092	-0.724554	-0.154297
O14	O	2.011092	-0.224554	0.345703
O15	O	1.318172	-0.472732	0.068976
O16	O	1.818172	0.027268	0.568976
O17	O	1.644801	-0.767643	-0.038672
O18	O	2.144801	-0.267643	0.461328
O19	O	1.419481	-0.505379	0.156583
O20	O	1.919481	-0.005379	0.656583
O21	O	1.370292	-0.597427	-0.107893
O22	O	1.870292	-0.097427	0.392107
O23	O	1.193462	-0.597412	0.068997
O24	O	1.693462	-0.097412	0.568997
O25	O	1.333990	-0.767617	0.272245
O26	O	1.833990	-0.267617	0.772245
O27	O	1.200281	-0.724528	0.156620
O28	O	1.700281	-0.224528	0.656620
O29	O	1.428480	-0.673149	0.272229
O30	O	1.928480	-0.173149	0.772229
O31	O	1.520091	-0.892324	-0.038651
O32	O	2.020091	-0.392324	0.461349
O33	O	1.386110	-0.892312	0.095376
O34	O	1.886110	-0.392312	0.595376
C35	C	1.162119	-0.656147	0.119665
C36	C	1.662119	-0.156147	0.619665
C37	C	1.055664	-0.641396	0.140685
C38	C	1.555664	-0.141396	0.640685
C39	C	0.837801	-0.796156	-0.079439
C40	C	1.337801	-0.296156	0.420561
C41	C	0.937821	-0.810014	-0.099194
C42	C	1.437821	-0.310014	0.400806
C43	C	0.967287	-0.767861	-0.039226
C44	C	1.467287	-0.267861	0.460774
C45	C	0.896722	-0.711847	0.040501
C46	C	1.396722	-0.211847	0.540501
C47	C	0.796691	-0.697982	0.060254
C48	C	1.296691	-0.197982	0.560254
C49	C	0.926178	-0.669687	0.100467
C50	C	1.426178	-0.169687	0.600467
C51	C	0.855613	-0.613673	0.180193
C52	C	1.355613	-0.113673	0.680193
C53	C	0.755592	-0.599812	0.199943
C54	C	1.255592	-0.099812	0.699943
C55	C	0.726126	-0.641965	0.139975
C56	C	1.226126	-0.141965	0.639975
C57	C	1.026209	-0.683552	0.080713
C58	C	1.526209	-0.183552	0.580713
C59	C	0.985099	-0.585378	0.220406
C60	C	1.485099	-0.085378	0.720406
C61	C	0.885079	-0.571520	0.240161
C62	C	1.385079	-0.071520	0.740161
C63	C	1.459963	-0.925054	0.021526
C64	C	1.959963	-0.425054	0.521526
C65	C	1.481008	-1.025334	0.000557
C66	C	1.981008	-0.525334	0.500557
C67	C	1.261163	-1.308054	0.220401
C68	C	1.761163	-0.808054	0.720401
C69	C	1.241391	-1.213837	0.240109
C70	C	1.741391	-0.713837	0.740109
C71	C	1.301293	-1.166707	0.180222
C72	C	1.801293	-0.666707	0.680222
C73	C	1.380971	-1.213802	0.100626
C74	C	1.880971	-0.713802	0.600626
C75	C	1.400750	-1.308029	0.080920
C76	C	1.900750	-0.808029	0.580920
C77	C	1.440880	-1.166682	0.040741
C78	C	1.940880	-0.666682	0.540741
C79	C	1.520558	-1.213778	-0.038855
C80	C	2.020558	-0.713778	0.461145
C81	C	1.540333	-1.307995	-0.058557
C82	C	2.040333	-0.807995	0.441443
C83	C	1.480430	-1.355126	0.001329
C84	C	1.980430	-0.855126	0.501329
C85	C	1.421102	-1.072455	0.060446
C86	C	1.921102	-0.572455	0.560446
C87	C	1.560689	-1.072430	-0.079035
C88	C	2.060689	-0.572430	0.420965
C89	C	1.580461	-1.166647	-0.098742
C90	C	2.080461	-0.666647	0.401258
C91	C	1.660779	-0.725362	0.021285
C92	C	2.160779	-0.225362	0.521285
C93	C	1.767236	-0.740139	0.000283
C94	C	2.267236	-0.240139	0.500283
C95	C	1.376274	-0.725338	0.305887
C96	C	1.876274	-0.225338	0.805887
C97	C	1.361492	-0.740104	0.406165
C98	C	1.861492	-0.240104	0.906165
C99	C	1.361796	-0.455411	0.119822
C100	C	1.861796	0.044589	0.619822
C101	C	1.340843	-0.355151	0.140810
C102	C	1.840843	0.144849	0.640810
C103	C	1.445559	-0.656113	-0.163827
C104	C	1.945559	-0.156113	0.336173
C105	C	1.460474	-0.641118	-0.264088
C106	C	1.960474	-0.141118	0.235912
C107	C	1.516618	-0.584997	0.688795
C108	C	2.016618	-0.084997	1.188795
C109	C	1.530513	-0.571126	0.594578
C110	C	2.030513	-0.071126	1.094578
C111	C	1.488259	-0.613369	0.547470
C112	C	1.988259	-0.113369	1.047470
C113	C	1.432107	-0.669486	0.594589
C114	C	1.932107	-0.169486	1.094589
C115	C	1.418217	-0.683365	0.688813
C116	C	1.918217	-0.183365	1.188813
C117	C	1.389858	-0.711736	0.547488
C118	C	1.889858	-0.211736	1.047488
C119	C	1.333707	-0.767854	0.594607
C120	C	1.833707	-0.267854	1.094607
C121	C	1.319819	-0.781729	0.688823
C122	C	1.819819	-0.281729	1.188823
C123	C	1.362073	-0.739486	0.735930
C124	C	1.862073	-0.239486	1.235930
C125	C	1.403748	-0.697858	0.453264
C126	C	1.903748	-0.197858	0.953264
C127	C	1.305348	-0.796225	0.453282
C128	C	1.805348	-0.296225	0.953282
C129	C	1.291453	-0.810097	0.547499
C130	C	1.791453	-0.310097	1.047499
H131	H	0.698139	-0.554195	0.264857
H132	H	1.198139	-0.054195	0.764857
H133	H	1.285190	-1.089991	0.196273
H134	H	1.785190	-0.589991	0.696273
H135	H	1.576234	-0.525438	0.556219
H136	H	2.076234	-0.025438	1.056219
O137	O	1.102307	-0.743968	-0.005271
O138	O	1.602307	-0.243968	0.494729
H139	H	1.146157	-0.703084	-0.051641
H140	H	1.646157	-0.203084	0.448359
O141	O	1.347081	-0.754442	0.837556
O142	O	1.847081	-0.254442	1.337556
H143	H	1.376984	-0.828821	0.844347
H144	H	1.876984	-0.328821	1.344347
H145	H	1.048730	-0.779147	-0.055316
H146	H	1.548730	-0.279147	0.444684
H147	H	0.995269	-0.855619	-0.164109
H148	H	1.495269	-0.355619	0.335891
H149	H	0.813798	-0.830464	-0.128261
H150	H	1.313798	-0.330464	0.371739
H151	H	0.644683	-0.630688	0.156058
H152	H	1.144683	-0.130688	0.656058
H153	H	0.827611	-0.525913	0.305075
H154	H	1.327611	-0.025913	0.805075
H155	H	1.551022	-0.550615	0.727156
H156	H	2.051022	-0.050615	1.227156
H157	H	1.270943	-0.830625	0.414927
H158	H	1.770943	-0.330625	0.914927
H159	H	1.605218	-1.346340	-0.123365
H160	H	2.105218	-0.846340	0.376635
H161	H	1.274106	-0.827432	0.727181
H162	H	1.774106	-0.327432	1.227181
H163	H	1.449466	-0.652166	0.414909
H164	H	1.949466	-0.152166	0.914909
H165	H	1.176519	-1.175496	0.304916
H166	H	1.676519	-0.675496	0.804916
O167	O	1.230893	-0.870622	0.598329
O168	O	1.730893	-0.370622	1.098329
H169	H	1.203834	-0.897662	0.549753
H170	H	1.703834	-0.397662	1.049753
H171	H	1.009089	-0.551051	0.269235
H172	H	1.509089	-0.051051	0.769235
H173	H	1.356228	-1.034118	0.125255
H174	H	1.856228	-0.534118	0.625255
H175	H	1.212403	-1.346437	0.269156
H176	H	1.712403	-0.846437	0.769156
H177	H	1.496519	-1.431844	-0.014717
H178	H	1.996519	-0.931844	0.485283
H179	H	1.609468	-1.034058	-0.127798
H180	H	2.109468	-0.534058	0.372202
O181	O	1.666421	-1.217452	-0.184572
O182	O	2.166421	-0.717452	0.315428
H183	H	1.670115	-1.290889	-0.188199
H184	H	2.170115	-0.790889	0.311801
O185	O	1.503231	-0.598403	0.445853
O186	O	2.003231	-0.098403	0.945853
H187	H	1.549365	-0.552277	0.421004
H188	H	2.049365	-0.052277	0.921004
