data_functionalizedCrystal
_audit_creation_method	'MofGen! by Chris Wilmer'
_symmetry_space_group_name_H-M	'P1'
_symmetry_Int_Tables_number	1
_symmetry_cell_setting	triclinic
loop_
_symmetry_equiv_pos_as_xyz
  x,y,z
_cell_length_a	15.995350
_cell_length_b	19.188930
_cell_length_c	15.072220
_cell_angle_alpha	89.993728
_cell_angle_beta	89.991149
_cell_angle_gamma	83.318578
loop_
_atom_site_label
_atom_site_type_symbol
_atom_site_fract_x
_atom_site_fract_y
_atom_site_fract_z
O1	O	1.110666	0.089991	-0.073718
O2	O	1.610666	0.589991	0.426282
O3	O	0.866850	0.101105	-0.073737
O4	O	1.366850	0.601105	0.426263
O5	O	0.995794	-0.006090	-0.073709
O6	O	1.495794	0.493910	0.426291
O7	O	0.981722	0.197186	-0.073745
O8	O	1.481722	0.697186	0.426255
O9	O	0.995763	-0.006084	0.073856
O10	O	1.495763	0.493916	0.573856
O11	O	0.866819	0.101111	0.073828
O12	O	1.366819	0.601111	0.573828
O13	O	1.110634	0.089997	0.073848
O14	O	1.610634	0.589997	0.573848
Zn15	Zn	0.988721	0.095555	0.097267
Zn16	Zn	1.488721	0.595555	0.597267
Zn17	Zn	0.988763	0.095547	-0.097156
Zn18	Zn	1.488763	0.595547	0.402844
O19	O	0.981690	0.197192	0.073820
O20	O	1.481690	0.697192	0.573820
C21	C	0.835641	0.100648	0.000043
C22	C	1.335641	0.600648	0.500043
C23	C	0.742696	0.099271	0.000037
C24	C	1.242696	0.599271	0.500037
C25	C	0.404967	0.094324	0.000056
C26	C	0.904967	0.594324	0.500056
C27	C	0.452680	0.017982	0.000398
C28	C	0.952680	0.517982	0.500398
C29	C	0.549365	0.019360	0.000059
C30	C	1.049365	0.519360	0.500059
C31	C	0.572518	0.096778	0.000047
C32	C	1.072518	0.596778	0.500047
C33	C	0.531311	0.134429	-0.084223
C34	C	1.031311	0.634429	0.415777
C35	C	0.434683	0.132511	-0.084287
C36	C	0.934683	0.632511	0.415713
C37	C	0.434302	0.134095	0.083522
C38	C	0.934302	0.634095	0.583522
C39	C	0.531247	0.134077	0.084629
C40	C	1.031247	0.634077	0.584629
C41	C	0.667211	0.098169	0.000039
C42	C	1.167211	0.598169	0.500039
C43	C	0.310274	0.092936	0.000058
C44	C	0.810274	0.592936	0.500058
C45	C	0.995323	-0.032099	0.000076
C46	C	1.495323	0.467901	0.500076
C47	C	0.993955	-0.109607	0.000083
C48	C	1.493955	0.390393	0.500083
C49	C	1.069615	-0.154338	0.000093
C50	C	1.569615	0.345662	0.500093
C51	C	1.068330	-0.227165	0.000079
C52	C	1.568330	0.272835	0.500079
C53	C	0.991380	-0.255258	0.000072
C54	C	1.491380	0.244742	0.500072
C55	C	0.915710	-0.210517	0.000057
C56	C	1.415710	0.289483	0.500057
C57	C	0.916997	-0.137691	0.000062
C58	C	1.416997	0.362309	0.500062
N59	N	0.932550	-0.363410	0.050287
N60	N	1.432550	0.136590	0.550287
N61	N	0.931333	-0.432592	0.050284
N62	N	1.431333	0.067408	0.550284
C63	C	0.987497	-0.474676	0.000054
C64	C	1.487497	0.025324	0.500054
N65	N	1.044937	-0.444966	-0.050161
N66	N	1.544937	0.055034	0.449839
N67	N	1.046158	-0.375779	-0.050154
N68	N	1.546158	0.124221	0.449846
C69	C	0.989976	-0.334224	0.000066
C70	C	1.489976	0.165776	0.500066
C71	C	1.061769	-0.598375	0.000048
C72	C	1.561769	-0.098375	0.500048
C73	C	1.060480	-0.671204	0.000028
C74	C	1.560480	-0.171204	0.500028
C75	C	0.907859	-0.654553	0.000015
C76	C	1.407859	-0.154553	0.500015
C77	C	0.909149	-0.581727	0.000025
C78	C	1.409149	-0.081727	0.500025
C79	C	0.986106	-0.553643	0.000046
C80	C	1.486106	-0.053643	0.500046
C81	C	1.141843	0.090454	0.000065
C82	C	1.641843	0.590454	0.500065
C83	C	1.234789	0.091831	0.000066
C84	C	1.734789	0.591831	0.500066
C85	C	0.982162	0.223201	0.000033
C86	C	1.482162	0.723201	0.500033
C87	C	0.983530	0.300709	0.000019
C88	C	1.483530	0.800709	0.500019
N89	N	0.988699	0.095560	0.229956
N90	N	1.488699	0.595560	0.729956
N91	N	0.988792	0.095537	-0.229845
N92	N	1.488792	0.595537	0.270155
C93	C	0.988762	0.095544	0.589157
C94	C	1.488762	0.595544	1.089157
C95	C	0.919536	0.152710	0.551535
C96	C	1.419536	0.652710	1.051535
C97	C	0.919693	0.152918	0.448710
C98	C	1.419693	0.652918	0.948710
C99	C	0.988730	0.095552	0.410953
C100	C	1.488730	0.595552	0.910953
C101	C	1.076036	0.111464	0.448248
C102	C	1.576036	0.611464	0.948248
C103	C	1.075648	0.111870	0.551106
C104	C	1.575648	0.611870	1.051106
C105	C	0.971460	0.022298	0.551269
C106	C	1.471460	0.522298	1.051269
C107	C	0.969454	0.022787	0.448405
C108	C	1.469454	0.522787	0.948405
C109	C	0.988717	0.095555	0.310240
C110	C	1.488717	0.595555	0.810240
C111	C	0.988780	0.095543	0.689871
C112	C	1.488780	0.595543	1.189871
H113	H	0.559795	0.108273	-0.146930
H114	H	1.059795	0.608273	0.353070
H115	H	1.122095	-0.707624	0.000031
H116	H	1.622095	-0.207624	0.500031
Br117	Br	0.803425	-0.692671	-0.000004
Br118	Br	1.303425	-0.192671	0.499996
Br119	Br	1.171018	-0.287884	0.000089
Br120	Br	1.671018	0.212116	0.500089
H121	H	0.855384	-0.101270	0.000054
H122	H	1.355384	0.398730	0.500054
Br123	Br	0.811277	-0.248640	0.000036
Br124	Br	1.311277	0.251360	0.500036
Br125	Br	0.811497	0.137166	0.406680
Br126	Br	1.311497	0.637166	0.906680
Br127	Br	1.163932	0.043913	0.407492
Br128	Br	1.663932	0.543913	0.907492
Br129	Br	0.862411	0.002657	0.407783
Br130	Br	1.362411	0.502657	0.907783
Br131	Br	0.806462	-0.521016	0.000012
Br132	Br	1.306462	-0.021016	0.500012
H133	H	0.930403	0.206759	0.577365
H134	H	1.430403	0.706759	1.077365
H135	H	1.128756	0.071875	0.575991
H136	H	1.628756	0.571875	1.075991
Br137	Br	0.404352	0.086741	-0.189266
Br138	Br	0.904352	0.586741	0.310734
H139	H	0.577345	-0.010441	-0.060444
H140	H	1.077345	0.489559	0.439556
Br141	Br	0.576805	0.088189	0.188538
Br142	Br	1.076805	0.588189	0.688538
Br143	Br	1.166208	-0.560256	0.000085
Br144	Br	1.666208	-0.060256	0.500085
Br145	Br	0.810996	0.137158	0.592774
Br146	Br	1.310996	0.637158	1.092774
Br147	Br	1.174056	-0.116226	0.000097
Br148	Br	1.674056	0.383774	0.500097
Br149	Br	0.380587	0.225926	-0.090676
Br150	Br	0.880587	0.725926	0.409324
Br151	Br	0.554532	0.229221	-0.089486
Br152	Br	1.054532	0.729221	0.410514
H153	H	1.091695	0.164273	0.422471
H154	H	1.591695	0.664273	0.922471
Br155	Br	0.556502	0.228178	0.093098
Br156	Br	1.056502	0.728178	0.593098
H157	H	0.930714	0.207273	0.424087
H158	H	1.430714	0.707273	0.924087
Br159	Br	0.400209	0.092500	0.189984
Br160	Br	0.900209	0.592500	0.689984
Br161	Br	0.381024	0.227909	0.084456
Br162	Br	0.881024	0.727909	0.584456
Br163	Br	1.101128	0.200902	0.591069
Br164	Br	1.601128	0.700902	1.091069
H165	H	0.909194	0.006998	0.577257
H166	H	1.409194	0.506998	1.077257
H167	H	1.016620	-0.021746	0.422708
H168	H	1.516620	0.478254	0.922708
Br169	Br	1.055606	-0.048606	0.591817
Br170	Br	1.555606	0.451394	1.091817
H171	H	0.434257	-0.012531	0.060832
H172	H	0.934257	0.487469	0.560832
Br173	Br	0.596913	-0.029969	0.100745
Br174	Br	1.096913	0.470031	0.600745
H175	H	0.433211	-0.012395	-0.059692
H176	H	0.933211	0.487605	0.440308
