data_functionalizedCrystal
_audit_creation_method	'MofGen! by Chris Wilmer'
_symmetry_space_group_name_H-M	'P1'
_symmetry_Int_Tables_number	1
_symmetry_cell_setting	triclinic
loop_
_symmetry_equiv_pos_as_xyz
  x,y,z
_cell_length_a	21.395362
_cell_length_b	13.897448
_cell_length_c	21.395355
_cell_angle_alpha	89.984371
_cell_angle_beta	89.956060
_cell_angle_gamma	90.033571
loop_
_atom_site_label
_atom_site_type_symbol
_atom_site_fract_x
_atom_site_fract_y
_atom_site_fract_z
Zn1	Zn	0.957916	-0.383718	-0.354598
Zn2	Zn	1.457916	0.116282	0.145402
Zn3	Zn	0.957842	-0.544997	-0.249826
Zn4	Zn	1.457842	-0.044997	0.250174
Zn5	Zn	0.853131	-0.383763	-0.249799
Zn6	Zn	1.353131	0.116237	0.250201
Zn7	Zn	0.853124	-0.545017	-0.354531
Zn8	Zn	1.353124	-0.045017	0.145469
O9	O	0.905503	-0.464374	-0.302189
O10	O	1.405503	0.035626	0.197811
O11	O	1.045584	-0.405085	-0.340739
O12	O	1.545584	0.094915	0.159261
O13	O	0.943924	-0.523620	-0.162145
O14	O	1.443924	-0.023620	0.337855
O15	O	0.867065	-0.248775	-0.263718
O16	O	1.367065	0.251225	0.236282
O17	O	1.045530	-0.523576	-0.263764
O18	O	1.545530	-0.023576	0.236236
O19	O	0.944050	-0.248742	-0.340714
O20	O	1.444050	0.251258	0.159286
O21	O	0.866993	-0.405161	-0.162125
O22	O	1.366993	0.094839	0.337875
O23	O	0.765452	-0.405181	-0.263653
O24	O	1.265452	0.094819	0.236347
O25	O	0.867053	-0.523610	-0.442218
O26	O	1.367053	-0.023610	0.057782
O27	O	0.765447	-0.523654	-0.340599
O28	O	1.265447	-0.023654	0.159401
O29	O	0.944043	-0.405104	-0.442267
O30	O	1.444043	0.094896	0.057733
O31	O	0.943918	-0.679982	-0.263698
O32	O	1.443918	-0.179982	0.236302
O33	O	0.866981	-0.679996	-0.340624
O34	O	1.366981	-0.179996	0.159376
C35	C	0.742716	-0.464425	-0.302116
C36	C	1.242716	0.035575	0.197884
C37	C	0.673074	-0.464470	-0.302100
C38	C	1.173074	0.035530	0.197900
C39	C	0.640375	-0.526240	-0.342105
C40	C	1.140375	-0.026240	0.157895
C41	C	0.574940	-0.526217	-0.342133
C42	C	1.074940	-0.026217	0.157867
C43	C	0.542206	-0.464433	-0.302144
C44	C	1.042206	0.035567	0.197856
C45	C	0.574913	-0.402650	-0.262136
C46	C	1.074913	0.097350	0.237864
C47	C	0.640348	-0.402669	-0.262114
C48	C	1.140348	0.097331	0.237886
C49	C	0.438480	-0.456662	-0.245739
C50	C	0.938480	0.043338	0.254261
C51	C	0.373047	-0.456650	-0.245760
C52	C	0.873047	0.043350	0.254240
C53	C	0.340385	-0.464370	-0.302214
C54	C	0.840385	0.035630	0.197786
C55	C	0.373165	-0.472121	-0.358647
C56	C	0.873165	0.027879	0.141353
C57	C	0.438599	-0.472140	-0.358625
C58	C	0.938599	0.027860	0.141375
C59	C	0.471254	-0.464405	-0.302164
C60	C	0.971254	0.035595	0.197836
C61	C	0.236734	-0.526118	-0.342253
C62	C	0.736734	-0.026118	0.157747
C63	C	0.171297	-0.526088	-0.342282
C64	C	0.671297	-0.026088	0.157718
C65	C	0.171272	-0.402526	-0.262279
C66	C	0.671272	0.097474	0.237721
C67	C	0.236707	-0.402551	-0.262255
C68	C	0.736707	0.097449	0.237745
C69	C	0.269434	-0.464352	-0.302242
C70	C	0.769434	0.035648	0.197758
C71	C	0.905458	-0.714988	-0.302170
C72	C	1.405458	-0.214988	0.197830
C73	C	0.905495	-0.822202	-0.302184
C74	C	1.405495	-0.322202	0.197816
C75	C	0.905561	-1.018497	-0.302223
C76	C	1.405561	-0.518497	0.197777
C77	C	0.905523	-0.909265	-0.302203
C78	C	1.405523	-0.409265	0.197797
C79	C	1.068927	-0.464323	-0.302262
C80	C	1.568927	0.035677	0.197738
C81	C	1.138568	-0.464302	-0.302293
C82	C	1.638568	0.035698	0.197707
C83	C	0.905555	-0.464354	-0.465612
C84	C	1.405555	0.035646	0.034388
C85	C	0.905578	-0.464346	-0.535253
C86	C	1.405578	0.035654	-0.035253
C87	C	0.905566	-0.212781	-0.302221
C88	C	1.405566	0.287219	0.197779
C89	C	0.905593	-0.105567	-0.302234
C90	C	1.405593	0.394433	0.197766
C91	C	0.945665	-0.402637	-0.567993
C92	C	1.445665	0.097363	-0.067993
C93	C	0.945664	-0.402596	-0.633429
C94	C	1.445664	0.097404	-0.133429
C95	C	0.905582	-0.464280	-0.666122
C96	C	1.405582	0.035720	-0.166122
C97	C	0.865488	-0.525993	-0.633374
C98	C	1.365488	-0.025993	-0.133374
C99	C	0.865485	-0.526026	-0.567940
C100	C	1.365485	-0.026026	-0.067940
C101	C	0.900619	-0.551135	-0.769788
C102	C	1.400619	-0.051135	-0.269788
C103	C	0.900626	-0.551103	-0.835221
C104	C	1.400626	-0.051103	-0.335221
C105	C	0.905586	-0.464178	-0.867942
C106	C	1.405586	0.035822	-0.367942
C107	C	0.910553	-0.377282	-0.835223
C108	C	1.410553	0.122718	-0.335223
C109	C	0.910550	-0.377315	-0.769788
C110	C	1.410550	0.122685	-0.269788
C111	C	0.905580	-0.464251	-0.737074
C112	C	1.405580	0.035749	-0.237074
C113	C	0.945675	-0.402419	-0.971635
C114	C	1.445675	0.097581	-0.471635
C115	C	0.945669	-0.402376	-1.037072
C116	C	1.445669	0.097624	-0.537072
C117	C	0.865496	-0.525782	-1.037016
C118	C	1.365496	-0.025782	-0.537016
C119	C	0.865498	-0.525817	-0.971580
C120	C	1.365498	-0.025817	-0.471580
C121	C	0.905591	-0.464137	-0.938894
C122	C	1.405591	0.035863	-0.438894
C123	C	0.905488	-0.464324	-0.139401
C124	C	1.405488	0.035676	0.360599
C125	C	0.905587	-0.464060	-0.069760
C126	C	1.405587	0.035940	0.430240
H127	H	0.667017	-0.576562	-0.374666
H128	H	1.167017	-0.076562	0.125334
H129	H	0.548311	-0.576517	-0.374713
H130	H	1.048311	-0.076517	0.125287
H131	H	0.465068	-0.450372	-0.199765
H132	H	0.965068	0.049628	0.300235
H133	H	0.346573	-0.478406	-0.404617
H134	H	0.846573	0.021594	0.095383
N135	N	0.539612	-0.336018	-0.219000
N136	N	1.039612	0.163982	0.281000
H137	H	0.550949	-0.350905	-0.174214
H138	H	1.050949	0.149095	0.325786
H139	H	0.551058	-0.267150	-0.228857
H140	H	1.051058	0.232850	0.271143
N141	N	0.271979	-0.335941	-0.219095
N142	N	0.771979	0.164059	0.280905
H143	H	0.318397	-0.345328	-0.225148
H144	H	0.818397	0.154672	0.274852
H145	H	0.260588	-0.267069	-0.228927
H146	H	0.760588	0.232931	0.271073
H147	H	0.144674	-0.576387	-0.374863
H148	H	0.644674	-0.076387	0.125137
H149	H	0.832859	-0.576073	-0.944923
H150	H	1.332859	-0.076073	-0.444923
N151	N	0.822253	-0.592599	-0.532625
N152	N	1.322253	-0.092599	-0.032625
H153	H	0.828336	-0.583262	-0.486212
H154	H	1.328336	-0.083262	0.013788
H155	H	0.777509	-0.577594	-0.544026
H156	H	1.277509	-0.077594	-0.044026
H157	H	0.896586	-0.621860	-0.861857
H158	H	1.396586	-0.121860	-0.361857
N159	N	0.895278	-0.644896	-0.734499
N160	N	1.395278	-0.144896	-0.234499
H161	H	0.892141	-0.699938	-0.765154
H162	H	1.392141	-0.199938	-0.265154
H163	H	0.933454	-0.653841	-0.707383
H164	H	1.433454	-0.153841	-0.207383
N165	N	0.988897	-0.335798	-1.072388
N166	N	1.488897	0.164202	-0.572388
H167	H	1.014291	-0.296730	-1.041749
H168	H	1.514291	0.203270	-0.541749
H169	H	1.017883	-0.375030	-1.099566
H170	H	1.517883	0.124970	-0.599566
H171	H	0.263381	-0.576435	-0.374815
H172	H	0.763381	-0.076435	0.125185
N173	N	0.988904	-0.336112	-0.532739
N174	N	1.488904	0.163888	-0.032739
H175	H	1.014299	-0.297012	-0.563413
H176	H	1.514299	0.202988	-0.063413
H177	H	0.963411	-0.291492	-0.505570
H178	H	1.463411	0.208508	-0.005570
N179	N	0.915898	-0.283524	-0.870512
N180	N	1.415898	0.216476	-0.370512
H181	H	0.879679	-0.240375	-0.859093
H182	H	1.379679	0.259625	-0.359093
H183	H	0.956476	-0.250770	-0.859145
H184	H	1.456476	0.249230	-0.359145
H185	H	0.346364	-0.450344	-0.199808
H186	H	0.846364	0.049656	0.300192
H187	H	0.465285	-0.478449	-0.404575
H188	H	0.965285	0.021551	0.095425
H189	H	0.144621	-0.352216	-0.229722
H190	H	0.644621	0.147784	0.270278
H191	H	0.666971	-0.352365	-0.229536
H192	H	1.166971	0.147635	0.270464
H193	H	0.978306	-0.352340	-0.660091
H194	H	1.478306	0.147660	-0.160091
N195	N	0.915908	-0.283600	-0.734496
N196	N	1.415908	0.216400	-0.234496
H197	H	0.919053	-0.228524	-0.765149
H198	H	1.419053	0.271476	-0.265149
H199	H	0.877735	-0.274669	-0.707318
H200	H	1.377735	0.225331	-0.207318
H201	H	0.978317	-0.352190	-0.945020
H202	H	1.478317	0.147810	-0.445020
N203	N	0.822259	-0.592307	-1.072268
N204	N	1.322259	-0.092307	-0.572268
H205	H	0.828341	-0.582922	-1.118689
H206	H	1.328341	-0.082922	-0.618689
H207	H	0.831992	-0.661201	-1.060841
H208	H	1.331992	-0.161201	-0.560841
H209	H	0.832851	-0.576214	-0.659997
H210	H	1.332851	-0.076214	-0.159997
