data_functionalizedCrystal
_audit_creation_method	'MofGen! by Chris Wilmer'
_symmetry_space_group_name_H-M	'P1'
_symmetry_Int_Tables_number	1
_symmetry_cell_setting	triclinic
loop_
_symmetry_equiv_pos_as_xyz
  x,y,z
_cell_length_a	14.560432
_cell_length_b	14.628931
_cell_length_c	14.628931
_cell_angle_alpha	59.999972
_cell_angle_beta	90.000750
_cell_angle_gamma	60.001318
loop_
_atom_site_label
_atom_site_type_symbol
_atom_site_fract_x
_atom_site_fract_y
_atom_site_fract_z
Zr1	Zr	0.884750	1.000601	-0.119964
O2	O	0.738105	1.191303	-0.265925
O3	O	0.929705	0.809897	-0.075219
O4	O	0.929705	1.000602	-0.265925
O5	O	0.738105	1.000598	0.075213
O6	O	1.080842	1.000606	-0.265925
O7	O	0.738105	1.000598	-0.075219
O8	O	1.080843	0.659469	0.075213
O9	O	0.738105	1.341735	-0.265925
O10	O	1.061670	0.888340	-0.056136
O11	O	0.948878	0.888337	0.056130
O12	O	0.948878	1.112869	-0.168402
O13	O	0.836086	1.112866	-0.056136
Zr14	Zr	1.125798	1.000607	0.119957
Zr15	Zr	1.125797	1.000607	-0.119964
Zr16	Zr	0.884751	1.000601	0.119958
Zr17	Zr	0.884751	1.240523	-0.119964
Zr18	Zr	1.125797	0.760686	0.119957
O19	O	1.080843	1.191312	0.075212
O20	O	1.080843	1.191312	-0.265925
O21	O	0.738105	1.191303	0.075213
O22	O	1.272443	0.809906	0.265918
O23	O	1.272443	0.809906	-0.075220
O24	O	0.929706	0.809897	0.265919
O25	O	1.272443	1.000611	-0.075220
O26	O	1.080843	1.000606	0.265918
O27	O	0.929706	1.000602	0.265918
O28	O	1.272443	1.000611	0.075212
O29	O	0.929705	1.341740	-0.265925
O30	O	1.080843	0.659469	0.265919
O31	O	1.272443	0.659474	0.265918
O32	O	1.272443	0.659474	0.075213
O33	O	0.738105	1.341735	-0.075219
O34	O	0.929706	1.341740	-0.075220
O35	O	1.061670	0.888340	0.168395
O36	O	1.174462	0.888343	0.056129
O37	O	1.061670	1.112871	-0.056136
O38	O	0.948878	1.112869	0.056129
C39	C	1.005274	0.700499	-0.000003
C40	C	1.005273	0.598646	-0.000003
C41	C	1.061226	0.553238	-0.055694
C42	C	1.061227	0.447968	-0.055695
C43	C	0.703761	1.000597	-0.000003
C44	C	0.601430	1.000594	-0.000003
C45	C	0.719169	0.766184	0.117193
C46	C	0.729962	0.648983	0.175785
C47	C	0.633809	0.648989	0.175782
C48	C	0.526856	0.766208	0.117183
C49	C	0.516063	0.883408	0.058591
C50	C	0.612224	0.883390	0.058598
C51	C	0.398325	1.117816	-0.058597
C52	C	0.494476	1.117813	-0.058602
C53	C	0.291372	1.235035	-0.117195
C54	C	0.280578	1.352238	-0.175796
C55	C	0.376739	1.352228	-0.175791
C56	C	0.483684	1.235014	-0.117194
C57	C	1.306787	1.000612	-0.000004
C58	C	1.409118	1.000615	-0.000004
C59	C	1.005273	1.000604	-0.300109
C60	C	1.005273	1.000604	-0.401962
C61	C	1.005274	1.300710	-0.000004
C62	C	1.005275	1.402563	-0.000004
C63	C	1.084402	1.000606	-0.447371
C64	C	1.084404	1.000606	-0.552641
C65	C	1.005275	1.000604	0.300102
C66	C	1.005275	1.000604	0.401955
C67	C	1.306787	0.700507	-0.000004
C68	C	1.409117	0.598657	-0.000004
C69	C	1.005274	0.700499	0.300102
C70	C	1.005274	0.598646	0.401955
C71	C	1.306787	0.700507	0.300102
C72	C	1.409118	0.598657	0.401955
C73	C	0.703761	1.300702	-0.300108
C74	C	0.601430	1.402552	-0.401961
C75	C	0.703761	1.300702	-0.000003
C76	C	0.601431	1.402552	-0.000003
C77	C	1.005274	1.300710	-0.300109
C78	C	1.005274	1.402563	-0.401962
C79	C	1.398787	0.553247	-0.055695
C80	C	1.504550	0.447979	-0.055696
C81	C	1.061227	0.553238	0.503056
C82	C	1.061228	0.447968	0.608328
C83	C	1.510693	0.553250	0.391672
C84	C	1.616459	0.447982	0.496941
H85	H	0.957374	0.559584	0.047678
H86	H	1.400458	0.559603	0.488691
H87	H	0.797467	0.766168	0.117192
C88	C	1.125938	0.605998	-0.120109
H89	H	1.117440	0.669837	-0.111665
H90	H	1.203412	0.537344	-0.091189
H91	H	1.096865	0.643385	-0.197227
C92	C	1.125941	0.395226	0.725488
H93	H	1.117445	0.331399	0.780872
H94	H	1.203414	0.357853	0.733944
H95	H	1.096867	0.463894	0.733937
C96	C	1.488419	0.455313	0.609718
H97	H	1.495656	0.413165	0.686799
H98	H	1.448491	0.545668	0.574782
H99	H	1.448496	0.439619	0.574786
H100	H	0.957364	0.441612	0.047673
H101	H	1.152151	1.000601	-0.408312
C102	C	0.364864	1.481148	-0.240151
H103	H	0.437445	1.464362	-0.231728
H104	H	0.324899	1.529402	-0.317263
H105	H	0.324933	1.529210	-0.211123
C106	C	1.522404	0.606004	0.274505
H107	H	1.449781	0.669829	0.219123
H108	H	1.562326	0.643382	0.266049
H109	H	1.562320	0.537339	0.266053
C110	C	1.175927	1.000604	-0.605386
H111	H	1.163927	1.000594	-0.669215
H112	H	1.172501	1.075580	-0.627234
H113	H	1.247827	0.925614	-0.552249
H114	H	0.642602	0.553553	0.223498
C115	C	1.125949	0.395216	-0.120102
H116	H	1.117468	0.331374	-0.111645
H117	H	1.096896	0.463869	-0.197215
H118	H	1.203428	0.357831	-0.091161
H119	H	0.817053	0.553546	0.223498
H120	H	0.448568	0.766202	0.117198
C121	C	0.913746	1.000606	-0.545310
H122	H	0.864097	1.000614	-0.587457
H123	H	0.947993	0.925630	-0.470482
H124	H	0.872662	1.075597	-0.545473
H125	H	0.937532	1.000596	-0.441015
H126	H	0.213084	1.235031	-0.117188
H127	H	1.311643	0.592308	-0.103378
H128	H	1.109124	0.592303	0.511676
H129	H	1.495881	0.408924	-0.103372
C130	C	0.589454	1.234997	-0.117179
H131	H	0.654692	1.148403	-0.073880
H132	H	0.589468	1.278291	-0.191837
H133	H	0.589466	1.278267	-0.085781
H134	H	0.193493	1.447669	-0.223497
H135	H	1.614797	0.441615	0.047685
C136	C	1.526832	0.545905	0.064413
H137	H	1.519598	0.588050	0.099349
H138	H	1.566757	0.455550	0.119832
H139	H	1.566757	0.561597	0.013791
C140	C	0.940530	0.455323	0.480886
H141	H	0.905425	0.413182	0.488089
H142	H	0.884854	0.545676	0.441165
H143	H	0.991372	0.439649	0.441129
C144	C	1.734169	0.395221	0.485275
H145	H	1.789813	0.331389	0.557558
H146	H	1.742646	0.357847	0.445540
H147	H	1.742674	0.463875	0.445543
H148	H	0.957367	0.559592	0.393335
