data_functionalizedCrystal
_audit_creation_method	'MofGen! by Chris Wilmer'
_symmetry_space_group_name_H-M	'P1'
_symmetry_Int_Tables_number	1
_symmetry_cell_setting	triclinic
loop_
_symmetry_equiv_pos_as_xyz
  x,y,z
_cell_length_a	10.654556
_cell_length_b	15.995350
_cell_length_c	9.130313
_cell_angle_alpha	89.997713
_cell_angle_beta	89.998135
_cell_angle_gamma	83.989956
loop_
_atom_site_label
_atom_site_type_symbol
_atom_site_fract_x
_atom_site_fract_y
_atom_site_fract_z
O1	O	1.666298	0.117628	-0.121736
O2	O	1.300674	0.128827	-0.121750
O3	O	1.493481	0.001398	-0.121741
O4	O	1.473492	0.245057	-0.121745
O5	O	1.493468	0.001394	0.121857
O6	O	1.300661	0.128823	0.121848
O7	O	1.666285	0.117624	0.121863
Cu8	Cu	1.483472	0.123223	0.144098
Cu9	Cu	1.483487	0.123228	-0.143986
O10	O	1.473479	0.245053	0.121854
C11	C	1.253881	0.128001	0.000047
C12	C	1.114470	0.125538	0.000041
C13	C	0.917977	0.122071	-0.132733
C14	C	1.048969	0.124381	-0.132742
C15	C	1.048974	0.124377	0.132843
C16	C	0.917985	0.122061	0.132850
C17	C	1.492648	-0.029804	0.000055
C18	C	1.490170	-0.122768	0.000047
C19	C	1.481273	-0.460568	0.000051
C20	C	1.343960	-0.413933	-0.000500
C21	C	1.346438	-0.317228	0.000049
C22	C	1.485686	-0.292981	0.000048
C23	C	1.553407	-0.333667	0.139155
C24	C	1.549957	-0.430323	0.139272
C25	C	1.552809	-0.430660	-0.137746
C26	C	1.552776	-0.333715	-0.139584
C27	C	1.488188	-0.198269	0.000051
C28	C	1.478776	-0.555280	0.000058
C29	C	1.713079	0.118449	0.000062
C30	C	1.852489	0.120913	0.000058
C31	C	1.474311	0.276254	0.000054
C32	C	1.476789	0.369219	0.000053
N33	N	1.483470	0.123220	0.346721
N34	N	1.483499	0.123225	-0.346608
C35	C	1.568873	0.066818	0.423377
C36	C	1.568885	0.066818	0.576713
C37	C	1.398087	0.179629	0.576725
C38	C	1.398070	0.179624	0.423391
H39	H	1.289082	-0.432783	-0.100257
H40	H	1.102284	0.125323	-0.240874
H41	H	0.864664	0.121117	0.240991
H42	H	1.328518	0.225553	0.360974
O43	O	1.683484	-0.472274	0.147677
H44	H	1.737765	-0.453442	0.051549
O45	O	1.271569	-0.440292	0.130905
H46	H	1.332964	-0.486462	0.196608
O47	O	1.484529	-0.454951	0.277008
H48	H	1.481428	-0.524091	0.278464
O49	O	1.275444	-0.280729	0.132360
H50	H	1.276956	-0.211452	0.133207
H51	H	0.864655	0.121135	-0.240861
O52	O	1.305992	0.240474	0.659417
H53	H	1.320361	0.231010	0.778919
O54	O	1.275902	-0.279976	-0.132015
H55	H	1.239706	-0.331029	-0.196848
O56	O	1.119610	0.125630	0.276066
H57	H	1.221696	0.127446	0.253755
O58	O	1.688913	-0.314159	0.146032
H59	H	1.739904	-0.339520	0.046949
O60	O	1.491103	-0.296443	0.276289
H61	H	1.411917	-0.248979	0.245722
H62	H	1.507920	-0.451459	-0.243180
O63	O	1.487295	-0.297934	-0.275913
H64	H	1.407303	-0.251330	-0.244371
H65	H	1.654322	-0.317761	-0.147984
H66	H	1.654049	-0.461831	-0.138681
O67	O	1.660964	0.005976	0.340675
H68	H	1.720342	-0.033249	0.419746
H69	H	1.638427	0.020890	0.639122
