data_functionalizedCrystal
_audit_creation_method	'MofGen! by Chris Wilmer'
_symmetry_space_group_name_H-M	'P1'
_symmetry_Int_Tables_number	1
_symmetry_cell_setting	triclinic
loop_
_symmetry_equiv_pos_as_xyz
  x,y,z
_cell_length_a	14.853566
_cell_length_b	23.532407
_cell_length_c	22.010155
_cell_angle_alpha	90.010545
_cell_angle_beta	89.987140
_cell_angle_gamma	96.758458
loop_
_atom_site_label
_atom_site_type_symbol
_atom_site_fract_x
_atom_site_fract_y
_atom_site_fract_z
O1	O	1.195567	-0.074348	-0.050493
O2	O	0.933011	-0.083206	-0.050504
O3	O	1.072206	0.004120	-0.050485
O4	O	1.056371	-0.161675	-0.050512
O5	O	1.072165	0.004120	0.050565
O6	O	0.932969	-0.083206	0.050546
O7	O	1.195525	-0.074348	0.050557
Cu8	Cu	1.064243	-0.078777	0.059778
Cu9	Cu	1.064293	-0.078777	-0.059726
O10	O	1.056330	-0.161674	0.050538
C11	C	0.899405	-0.082805	0.000020
C12	C	0.799335	-0.081603	0.000016
C13	C	0.376228	-0.076517	-0.055055
C14	C	0.376204	-0.076517	0.055114
C15	C	0.470226	-0.077647	0.055112
C16	C	0.517253	-0.078212	0.000026
C17	C	0.470258	-0.077648	-0.055059
C18	C	0.517226	-0.078216	0.110195
C19	C	0.611254	-0.079346	0.110195
C20	C	0.658283	-0.079907	0.055108
C21	C	0.611283	-0.079343	0.000022
C22	C	0.658310	-0.079908	-0.055065
C23	C	0.611312	-0.079340	-0.110152
C24	C	0.517288	-0.078209	-0.110146
C25	C	0.752308	-0.081037	0.055102
C26	C	0.752340	-0.081039	-0.055068
C27	C	1.071782	0.025338	0.000042
C28	C	1.070570	0.088560	0.000048
C29	C	1.145339	0.487337	0.000028
C30	C	1.144213	0.546742	0.000025
O31	O	1.213524	0.583184	0.000006
N32	N	1.061461	0.569729	0.000022
C33	C	0.979830	0.533308	0.000017
O34	O	0.909340	0.558315	0.000014
C35	C	0.980957	0.473904	0.000016
C36	C	1.063714	0.450920	0.000024
C37	C	1.228089	0.464353	0.000036
C38	C	1.229215	0.404952	0.000040
C39	C	1.147591	0.368535	0.000037
C40	C	1.064840	0.391519	0.000029
C41	C	0.899327	0.437483	0.000006
C42	C	0.900462	0.378076	0.000004
C43	C	0.983219	0.355092	0.000013
C44	C	0.984341	0.295701	0.000029
N45	N	1.067093	0.272714	0.000032
C46	C	1.148718	0.309131	0.000035
C47	C	0.977469	0.658060	0.000018
C48	C	0.976341	0.717463	0.000024
C49	C	1.140724	0.730894	0.000031
C50	C	1.141851	0.671490	0.000029
C51	C	1.060221	0.635073	0.000021
C52	C	1.151076	0.184384	0.000045
C53	C	1.152194	0.124977	0.000052
C54	C	0.987812	0.111552	0.000042
C55	C	0.986693	0.170953	0.000038
C56	C	1.068332	0.207369	0.000038
O57	O	0.915066	0.259224	0.000046
O58	O	1.219196	0.284115	0.000030
C59	C	1.229131	-0.074750	0.000032
C60	C	1.329201	-0.075952	0.000031
C61	C	1.056754	0.817108	0.000016
C62	C	1.057966	0.753885	0.000024
N63	N	1.064215	-0.078777	0.143831
N64	N	1.064328	-0.078773	-0.143778
C65	C	1.118661	-0.113375	0.563607
C66	C	1.118671	-0.113374	0.627214
O67	O	1.164930	-0.142786	0.660103
N68	N	1.064310	-0.078771	0.659038
C69	C	1.009942	-0.044163	0.627250
O70	O	0.963706	-0.014730	0.660160
C71	C	1.009937	-0.044162	0.563644
C72	C	1.064295	-0.078771	0.531824
C73	C	1.173014	-0.147981	0.531786
C74	C	1.173002	-0.147983	0.468183
C75	C	1.118636	-0.113379	0.436400
C76	C	1.064282	-0.078773	0.468221
C77	C	0.955574	-0.009551	0.531858
C78	C	0.955574	-0.009553	0.468247
C79	C	1.009932	-0.044162	0.436427
C80	C	1.009904	-0.044171	0.372834
N81	N	1.064265	-0.078774	0.341011
C82	C	1.118631	-0.113378	0.372794
C83	C	1.009958	-0.044168	0.760828
C84	C	1.009958	-0.044171	0.824434
C85	C	1.118688	-0.113381	0.824393
C86	C	1.118683	-0.113380	0.760787
C87	C	1.064319	-0.078770	0.729005
C88	C	1.118601	-0.113380	0.239222
C89	C	1.118581	-0.113381	0.175614
C90	C	1.009855	-0.044169	0.175660
C91	C	1.009871	-0.044170	0.239263
C92	C	1.064251	-0.078777	0.271043
O93	O	0.963672	-0.014772	0.339906
O94	O	1.164869	-0.142800	0.339877
H95	H	0.478929	-0.077760	0.155044
Cl96	Cl	0.317082	-0.075813	0.124361
Cl97	Cl	0.885204	0.065760	0.000036
H98	H	0.337959	-0.076052	-0.099906
H99	H	0.649511	-0.079808	0.155051
Cl100	Cl	0.811385	-0.081756	0.124349
Cl101	Cl	0.941511	-0.000670	0.135692
H102	H	0.910992	0.628413	0.000017
H103	H	1.162945	-0.141563	0.734883
H104	H	1.162845	-0.141566	0.149708
H105	H	1.217290	-0.176160	0.557657
H106	H	1.162883	-0.141560	0.265090
Cl107	Cl	1.330718	0.510124	0.000041
H108	H	1.217270	-0.176163	0.442281
Cl109	Cl	1.243339	0.776686	0.000031
H110	H	1.162955	-0.141559	0.850282
Cl111	Cl	0.941606	-0.000670	0.864428
H112	H	1.209239	0.652781	0.000036
H113	H	0.965597	-0.015996	0.265172
H114	H	0.965680	-0.015986	0.734955
H115	H	0.831938	0.456186	-0.000005
H116	H	0.833987	0.348428	-0.000003
H117	H	0.790623	-0.081498	-0.099927
H118	H	0.649613	-0.079804	-0.155003
H119	H	0.911312	0.018632	0.557755
H120	H	0.911304	0.018632	0.442374
H121	H	1.219588	0.106267	0.000060
Cl122	Cl	0.458205	-0.077473	-0.179391
H123	H	1.217555	0.214027	0.000042
H124	H	1.296604	0.386244	0.000045
H125	H	0.908952	0.736171	0.000027
Cl126	Cl	0.882654	0.199848	0.000039
