data_functionalizedCrystal
_audit_creation_method	'MofGen! by Chris Wilmer'
_symmetry_space_group_name_H-M	'P1'
_symmetry_Int_Tables_number	1
_symmetry_cell_setting	triclinic
loop_
_symmetry_equiv_pos_as_xyz
  x,y,z
_cell_length_a	16.109301
_cell_length_b	10.065918
_cell_length_c	16.109301
_cell_angle_alpha	99.820212
_cell_angle_beta	83.461481
_cell_angle_gamma	99.860161
loop_
_atom_site_label
_atom_site_type_symbol
_atom_site_fract_x
_atom_site_fract_y
_atom_site_fract_z
O1	O	1.114031	0.113412	0.117705
O2	O	1.447364	0.446746	0.451039
O3	O	1.780698	0.780079	0.784372
O4	O	0.871971	0.113435	0.131007
O5	O	1.205304	0.446768	0.464340
O6	O	1.538638	0.780101	0.797673
O7	O	0.999649	0.113409	0.003324
O8	O	1.332983	0.446742	0.336657
O9	O	1.666316	0.780076	0.669990
O10	O	0.986353	0.113438	0.245388
O11	O	1.319686	0.446771	0.578722
O12	O	1.653019	0.780105	0.912055
O13	O	0.977824	-0.113580	-0.018372
O14	O	1.311158	0.219753	0.314961
O15	O	1.644491	0.553087	0.648294
O16	O	0.850146	-0.113554	0.109311
O17	O	1.183480	0.219779	0.442644
O18	O	1.516813	0.553112	0.775977
O19	O	1.092206	-0.113577	0.096009
O20	O	1.425539	0.219757	0.429343
O21	O	1.758873	0.553090	0.762676
Zn22	Zn	0.967711	-0.149605	0.099215
Zn23	Zn	1.301044	0.183729	0.432549
Zn24	Zn	1.634378	0.517062	0.765882
Zn25	Zn	0.996466	0.149463	0.127801
Zn26	Zn	1.329800	0.482796	0.461134
Zn27	Zn	1.663133	0.816130	0.794467
O28	O	0.964528	-0.113551	0.223692
O29	O	1.297861	0.219782	0.557026
O30	O	1.631194	0.553116	0.890359
C31	C	0.830084	-0.000057	0.119620
C32	C	1.163417	0.333276	0.452954
C33	C	1.496751	0.666610	0.786287
C34	C	0.737789	-0.000049	0.118006
C35	C	1.071123	0.333284	0.451339
C36	C	1.404456	0.666618	0.784673
N37	N	0.948092	-0.353711	0.079706
N38	N	1.281426	-0.020377	0.413039
N39	N	1.614759	0.312956	0.746373
C40	C	0.515516	-0.000056	0.190013
C41	C	0.848850	0.333277	0.523346
C42	C	1.182183	0.666610	0.856680
C43	C	0.428795	-0.000065	0.188488
C44	C	0.762128	0.333268	0.521821
C45	C	1.095462	0.666601	0.855155
C46	C	0.448668	-0.000078	0.036998
C47	C	0.782002	0.333256	0.370331
C48	C	1.115335	0.666589	0.703665
C49	C	0.535387	-0.000078	0.038523
C50	C	0.868720	0.333255	0.371856
C51	C	1.202054	0.666588	0.705190
C52	C	0.568809	-0.000061	0.115033
C53	C	0.902142	0.333272	0.448367
C54	C	1.235476	0.666606	0.781700
C55	C	0.395369	-0.000069	0.111984
C56	C	0.728703	0.333264	0.445317
C57	C	1.062036	0.666598	0.778650
C58	C	0.301342	-0.000079	0.110330
C59	C	0.634676	0.333255	0.443663
C60	C	0.968009	0.666588	0.776996
C61	C	0.662842	-0.000054	0.116688
C62	C	0.996175	0.333280	0.450021
C63	C	1.329508	0.666613	0.783354
C64	C	0.989635	-0.421489	0.121013
C65	C	1.322968	-0.088156	0.454346
C66	C	1.656301	0.245178	0.787680
C67	C	0.974543	-0.578656	0.105990
C68	C	1.307876	-0.245323	0.439324
C69	C	1.641210	0.088010	0.772657
C70	C	1.134093	-0.000082	0.107396
C71	C	1.467427	0.333252	0.440729
C72	C	1.800760	0.666585	0.774063
C73	C	1.226389	-0.000081	0.109011
C74	C	1.559722	0.333253	0.442345
C75	C	1.893055	0.666586	0.775678
C76	C	0.988198	-0.000086	-0.038499
C77	C	1.321531	0.333247	0.294834
C78	C	1.654865	0.666581	0.628167
C79	C	0.986583	-0.000088	-0.130795
C80	C	1.319916	0.333245	0.202539
C81	C	1.653249	0.666579	0.535872
N82	N	1.016091	0.353569	0.147303
N83	N	1.349425	0.686902	0.480637
N84	N	1.682758	1.020235	0.813970
C85	C	1.058592	-0.000073	-0.353066
C86	C	1.391925	0.333261	-0.019732
C87	C	1.725259	0.666594	0.313601
C88	C	1.057069	-0.000061	-0.439785
C89	C	1.390402	0.333272	-0.106452
C90	C	1.723736	0.666605	0.226882
C91	C	0.905581	-0.000053	-0.419910
C92	C	1.238914	0.333280	-0.086577
C93	C	1.572248	0.666614	0.246757
C94	C	0.907106	-0.000055	-0.333191
C95	C	1.240439	0.333279	0.000142
C96	C	1.573772	0.666612	0.333475
C97	C	0.983613	-0.000071	-0.299772
C98	C	1.316946	0.333262	0.033561
C99	C	1.650280	0.666595	0.366894
C100	C	0.980565	-0.000058	-0.473210
C101	C	1.313899	0.333275	-0.139877
C102	C	1.647232	0.666608	0.193456
C103	C	0.978913	-0.000046	-0.567235
C104	C	1.312247	0.333287	-0.233902
C105	C	1.645580	0.666621	0.099431
C106	C	0.985266	-0.000081	-0.205741
C107	C	1.318599	0.333252	0.127592
C108	C	1.651932	0.666586	0.460925
C109	C	0.975979	-0.000053	0.265516
C110	C	1.309313	0.333281	0.598849
C111	C	1.642646	0.666614	0.932182
C112	C	0.977596	-0.000042	0.357812
C113	C	1.310929	0.333291	0.691145
C114	C	1.644262	0.666625	1.024479
H115	H	0.542725	-0.000052	0.252312
H116	H	0.876058	0.333281	0.585645
H117	H	1.209391	0.666615	0.918978
H118	H	0.421444	-0.000100	-0.025295
H119	H	0.754778	0.333233	0.308038
H120	H	1.088111	0.666566	0.641372
O121	O	0.371312	-0.000056	0.269358
O122	O	0.704646	0.333277	0.602692
O123	O	1.037979	0.666611	0.936025
H124	H	0.409126	-0.000036	0.322814
H125	H	0.742459	0.333298	0.656147
H126	H	1.075793	0.666631	0.989480
O127	O	0.592877	-0.000086	-0.042351
O128	O	0.926210	0.333247	0.290982
O129	O	1.259544	0.666580	0.624315
H130	H	0.555071	-0.000080	-0.095808
H131	H	0.888404	0.333253	0.237525
H132	H	1.221738	0.666587	0.570858
H133	H	0.843291	-0.000042	-0.447131
H134	H	1.176624	0.333291	-0.113797
H135	H	1.509958	0.666625	0.219536
H136	H	1.036377	-0.363161	0.167496
H137	H	1.369710	-0.029828	0.500829
H138	H	1.703044	0.303506	0.834162
O139	O	0.912623	-0.655893	0.044410
O140	O	1.245956	-0.322559	0.377744
O141	O	1.579290	0.010774	0.711077
H142	H	0.910480	-0.767217	0.042279
H143	H	1.243814	-0.433884	0.375613
H144	H	1.577147	-0.100551	0.708946
O145	O	1.078005	-0.569198	0.208890
O146	O	1.411339	-0.235864	0.542224
O147	O	1.744672	0.097469	0.875557
H148	H	1.080139	-0.457873	0.211033
H149	H	1.413472	-0.124539	0.544366
H150	H	1.746806	0.208794	0.877700
H151	H	0.901356	-0.412039	0.033218
H152	H	1.234689	-0.078705	0.366551
H153	H	1.568022	0.254628	0.699884
H154	H	1.120889	-0.000084	-0.325859
H155	H	1.454223	0.333250	0.007474
H156	H	1.787556	0.666583	0.340808
H157	H	1.118125	-0.000060	-0.483173
H158	H	1.451458	0.333274	-0.149840
H159	H	1.784791	0.666607	0.183493
O160	O	0.826231	-0.000068	-0.275702
O161	O	1.159564	0.333265	0.057632
O162	O	1.492898	0.666598	0.390965
H163	H	0.772772	-0.000082	-0.313510
H164	H	1.106105	0.333252	0.019824
H165	H	1.439439	0.666585	0.353157
