data_functionalizedCrystal
_audit_creation_method	'MofGen! by Chris Wilmer'
_symmetry_space_group_name_H-M	'P1'
_symmetry_Int_Tables_number	1
_symmetry_cell_setting	triclinic
loop_
_symmetry_equiv_pos_as_xyz
  x,y,z
_cell_length_a	10.654550
_cell_length_b	10.654560
_cell_length_c	15.186229
_cell_angle_alpha	90.001954
_cell_angle_beta	90.006884
_cell_angle_gamma	84.487095
loop_
_atom_site_label
_atom_site_type_symbol
_atom_site_fract_x
_atom_site_fract_y
_atom_site_fract_z
O1	O	-1.667846	-0.176396	-0.073297
O2	O	-1.302368	-0.193202	-0.073283
O3	O	-1.493503	-0.002061	-0.073289
O4	O	-1.476711	-0.367538	-0.073292
O5	O	-1.493490	-0.002058	0.073169
O6	O	-1.302355	-0.193199	0.073174
O7	O	-1.667833	-0.176393	0.073160
Zn8	Zn	-1.485092	-0.184796	0.096420
Zn9	Zn	-1.485109	-0.184800	-0.096543
O10	O	-1.476698	-0.367535	0.073166
C11	C	-1.255564	-0.191967	-0.000052
C12	C	-1.116120	-0.188275	-0.000047
C13	C	-1.492261	0.044738	-0.000061
C14	C	-1.488564	0.184181	-0.000065
C15	C	-1.714638	-0.177629	-0.000072
C16	C	-1.854081	-0.181321	-0.000084
C17	C	-1.036639	-0.300816	-0.000061
C18	C	-0.905618	-0.297339	-0.000076
C19	C	-0.933573	-0.068771	-0.000067
C20	C	-1.064591	-0.072249	-0.000046
C21	C	-1.088168	-0.416842	-0.000062
C22	C	-1.008686	-0.529392	-0.000077
C23	C	-0.877665	-0.525916	-0.000092
C24	C	-0.826126	-0.409889	-0.000092
C25	C	-1.477940	-0.414334	-0.000064
C26	C	-1.481638	-0.553777	-0.000065
C27	C	-1.483366	0.380721	0.079769
C28	C	-1.486824	0.249698	0.079770
C29	C	-1.486832	0.249692	-0.079906
C30	C	-1.483364	0.380711	-0.079906
C31	C	-1.481639	0.446233	0.159610
C32	C	-1.483369	0.380731	0.239451
C33	C	-1.486827	0.249708	0.239451
C34	C	-1.488557	0.184187	0.159611
N35	N	-1.485090	-0.184793	0.228113
N36	N	-1.485122	-0.184793	-0.228236
C37	C	-1.569754	-0.100184	0.453833
C38	C	-1.569758	-0.100181	0.546023
C39	C	-1.400449	-0.269405	0.546037
C40	C	-1.400440	-0.269401	0.453849
C41	C	-1.485099	-0.184792	0.407750
C42	C	-1.485112	-0.184793	0.592127
C43	C	-1.485116	-0.184791	0.692084
C44	C	-1.485094	-0.184793	0.307787
H45	H	-1.194850	-0.419686	-0.000054
H46	H	-1.050657	-0.623857	-0.000069
C47	C	-1.590060	0.434241	0.375549
C48	C	-1.481460	0.452744	0.327209
H49	H	-1.588873	0.478692	0.429730
H50	H	-1.662592	0.464649	0.342744
H51	H	-1.592354	0.346831	0.386968
H52	H	-1.479171	0.540154	0.315784
H53	H	-1.408910	0.422342	0.360020
H54	H	-0.891599	0.025693	-0.000082
H55	H	-1.488240	0.196334	-0.144908
H56	H	-1.638689	-0.031284	0.583542
H57	H	-1.481947	0.434043	-0.144914
H58	H	-1.638687	-0.031289	0.416301
H59	H	-0.812953	-0.617560	-0.000095
C60	C	-1.079073	0.154031	-0.000060
C61	C	-1.151967	0.051457	-0.000042
H62	H	-1.133019	0.230401	-0.000062
H63	H	-1.027371	0.150643	0.051003
H64	H	-1.027409	0.150622	-0.051143
H65	H	-1.203625	0.054861	0.051045
H66	H	-1.203691	0.054847	-0.051110
H67	H	-1.488221	0.196378	0.304461
C68	C	-1.476678	0.633927	0.246545
C69	C	-1.477831	0.590254	0.159611
H70	H	-1.474321	0.722838	0.246542
H71	H	-1.550566	0.613225	0.276015
H72	H	-1.404348	0.595349	0.276031
H73	H	-1.550166	0.628825	0.130127
H74	H	-1.403935	0.610967	0.130129
C75	C	-1.493491	-0.003501	0.246545
C76	C	-1.492348	0.040162	0.159611
H77	H	-1.495841	-0.092413	0.246543
H78	H	-1.419603	0.017210	0.276024
H79	H	-1.565821	0.035075	0.276021
H80	H	-1.420013	0.001593	0.130136
H81	H	-1.566244	0.019439	0.130119
H82	H	-0.719439	-0.407067	-0.000091
C83	C	-1.325295	-0.344562	0.687362
C84	C	-1.307406	-0.362417	0.596713
H85	H	-1.267860	-0.401994	0.718644
H86	H	-1.310919	-0.260628	0.702474
H87	H	-1.409237	-0.358978	0.702447
H88	H	-1.223466	-0.347992	0.581628
H89	H	-1.321773	-0.446371	0.581595
C90	C	-1.233088	-0.436689	0.463116
C91	C	-1.307383	-0.362414	0.403187
H92	H	-1.175646	-0.494110	0.431837
H93	H	-1.187460	-0.383997	0.499080
H94	H	-1.285774	-0.482351	0.499065
H95	H	-1.254698	-0.316744	0.367242
H96	H	-1.353014	-0.415113	0.367208
