data_functionalizedCrystal
_audit_creation_method	'MofGen! by Chris Wilmer'
_symmetry_space_group_name_H-M	'P1'
_symmetry_Int_Tables_number	1
_symmetry_cell_setting	triclinic
loop_
_symmetry_equiv_pos_as_xyz
  x,y,z
_cell_length_a	26.210047
_cell_length_b	16.109301
_cell_length_c	16.109301
_cell_angle_alpha	96.538468
_cell_angle_beta	89.988505
_cell_angle_gamma	89.989538
loop_
_atom_site_label
_atom_site_type_symbol
_atom_site_fract_x
_atom_site_fract_y
_atom_site_fract_z
O1	O	-0.042397	-1.103116	0.106877
O2	O	0.457603	-0.603116	0.606877
O3	O	-0.042405	-0.861054	0.120176
O4	O	0.457595	-0.361054	0.620176
O5	O	-0.042397	-0.988735	-0.007504
O6	O	0.457603	-0.488735	0.492496
O7	O	-0.042404	-0.975436	0.234558
O8	O	0.457596	-0.475436	0.734558
O9	O	0.042461	-0.988755	-0.007528
O10	O	0.542461	-0.488755	0.492472
O11	O	0.042453	-0.861075	0.120153
O12	O	0.542453	-0.361075	0.620153
O13	O	0.042461	-1.103137	0.106853
O14	O	0.542461	-0.603137	0.606853
Cu15	Cu	0.050205	-0.982108	0.113501
Cu16	Cu	0.550205	-0.482108	0.613501
Cu17	Cu	-0.050149	-0.982083	0.113529
Cu18	Cu	0.449851	-0.482083	0.613529
O19	O	0.042454	-0.975456	0.234534
O20	O	0.542454	-0.475456	0.734534
C21	C	0.000023	-0.830090	0.119626
C22	C	0.500023	-0.330090	0.619626
C23	C	0.000020	-0.737794	0.118011
C24	C	0.500020	-0.237794	0.618011
N25	N	-0.120733	-0.982066	0.113543
N26	N	0.379267	-0.482066	0.613543
C27	C	0.000032	-0.988206	-0.038491
C28	C	0.500032	-0.488206	0.461509
C29	C	0.000031	-0.986591	-0.130786
C30	C	0.500031	-0.486591	0.369214
C31	C	-0.473244	-1.038758	0.057096
C32	C	0.026756	-0.538758	0.557096
C33	C	-0.686902	-1.038771	0.057079
C34	C	-0.186902	-0.538771	0.557079
O35	O	-0.714521	-1.086968	0.009117
O36	O	-0.214521	-0.586968	0.509117
N37	N	-0.713627	-0.982126	0.113497
N38	N	-0.213627	-0.482126	0.613497
C39	C	-0.686934	-0.925478	0.169926
C40	C	-0.186934	-0.425478	0.669926
O41	O	-0.714567	-0.877305	0.217919
O42	O	-0.214567	-0.377305	0.717919
C43	C	-0.473276	-0.925471	0.169947
C44	C	0.026724	-0.425471	0.669947
C45	C	-0.446554	-0.982113	0.113520
C46	C	0.053446	-0.482113	0.613520
C47	C	-0.446522	-1.095397	0.000674
C48	C	0.053478	-0.595397	0.500674
C49	C	-0.393110	-1.095390	0.000676
C50	C	0.106890	-0.595390	0.500676
C51	C	-0.366421	-1.038745	0.057100
C52	C	0.133579	-0.538745	0.557100
C53	C	-0.393143	-0.982107	0.113522
C54	C	0.106857	-0.482107	0.613522
C55	C	-0.446584	-0.868827	0.226381
C56	C	0.053416	-0.368827	0.726381
C57	C	-0.393166	-0.868832	0.226382
C58	C	0.106834	-0.368832	0.726382
C59	C	-0.366444	-0.925475	0.169955
C60	C	0.133556	-0.425475	0.669955
C61	C	-0.313042	-0.925455	0.169948
C62	C	0.186958	-0.425455	0.669948
N63	N	-0.286317	-0.982099	0.113530
N64	N	0.213683	-0.482099	0.613530
C65	C	-0.313007	-1.038744	0.057106
C66	C	0.186993	-0.538744	0.557106
C67	C	-0.799107	-0.925485	0.169910
C68	C	-0.299107	-0.425485	0.669910
C69	C	-0.852521	-0.925486	0.169904
C70	C	-0.352521	-0.425486	0.669904
C71	C	-0.852486	-1.038779	0.057057
C72	C	-0.352486	-0.538779	0.557057
C73	C	-0.799071	-1.038774	0.057060
C74	C	-0.299071	-0.538774	0.557060
C75	C	-0.772382	-0.982130	0.113493
C76	C	-0.272382	-0.482130	0.613493
C77	C	-0.200839	-1.038726	0.057114
C78	C	0.299161	-0.538726	0.557114
C79	C	-0.147422	-1.038712	0.057119
C80	C	0.352578	-0.538712	0.557119
C81	C	-0.147462	-0.925421	0.169968
C82	C	0.352538	-0.425421	0.669968
C83	C	-0.200874	-0.925432	0.169961
C84	C	0.299126	-0.425432	0.669961
C85	C	-0.227561	-0.982091	0.113531
C86	C	0.272439	-0.482091	0.613531
O87	O	-0.285390	-0.877289	0.217891
O88	O	0.214610	-0.377289	0.717891
O89	O	-0.285364	-1.086923	0.009134
O90	O	0.214636	-0.586923	0.509134
C91	C	-0.526655	-1.038765	0.057094
C92	C	-0.026655	-0.538765	0.557094
C93	C	-0.553377	-0.982127	0.113516
C94	C	-0.053377	-0.482127	0.613516
C95	C	-0.526687	-0.925481	0.169940
C96	C	-0.026687	-0.425481	0.669940
C97	C	-0.606791	-0.982127	0.113510
C98	C	-0.106791	-0.482127	0.613510
C99	C	-0.633481	-1.038772	0.057086
C100	C	-0.133481	-0.538772	0.557086
C101	C	-0.606756	-1.095417	0.000668
C102	C	-0.106756	-0.595417	0.500668
C103	C	-0.553345	-1.095410	0.000670
C104	C	-0.053345	-0.595410	0.500670
C105	C	-0.553412	-0.868837	0.226358
C106	C	-0.053412	-0.368837	0.726358
C107	C	-0.606824	-0.868848	0.226351
C108	C	-0.106824	-0.368848	0.726351
C109	C	-0.633513	-0.925493	0.169927
C110	C	-0.133513	-0.425493	0.669927
N111	N	0.120789	-0.982131	0.113480
N112	N	0.620789	-0.482131	0.613480
C113	C	0.000032	-1.134101	0.107404
C114	C	0.500032	-0.634101	0.607404
C115	C	0.000032	-1.226397	0.109019
C116	C	0.500032	-0.726397	0.609019
C117	C	0.000024	-0.515522	0.190018
C118	C	0.500024	-0.015522	0.690018
C119	C	0.000027	-0.428802	0.188494
C120	C	0.500027	0.071198	0.688494
C121	C	0.000030	-0.448676	0.037006
C122	C	0.500030	0.051324	0.537006
C123	C	0.000030	-0.535395	0.038530
C124	C	0.500030	-0.035395	0.538530
C125	C	0.000024	-0.568815	0.115039
C126	C	0.500024	-0.068815	0.615039
C127	C	0.000027	-0.395376	0.111990
C128	C	0.500027	0.104624	0.611990
C129	C	0.000031	-0.301350	0.110337
C130	C	0.500031	0.198650	0.610337
C131	C	0.000022	-0.662847	0.116693
C132	C	0.500022	-0.162847	0.616693
C133	C	0.000024	-1.057074	-0.439785
C134	C	0.500024	-0.557074	0.060215
C135	C	0.000027	-1.058600	-0.353064
C136	C	0.500027	-0.558600	0.146936
C137	C	0.000029	-0.907111	-0.333191
C138	C	0.500029	-0.407111	0.166809
C139	C	0.000030	-0.905586	-0.419910
C140	C	0.500030	-0.405586	0.080090
C141	C	0.000025	-0.980571	-0.473205
C142	C	0.500025	-0.480571	0.026795
C143	C	0.000027	-0.983620	-0.299766
C144	C	0.500027	-0.483620	0.200234
C145	C	0.000030	-0.985274	-0.205740
C146	C	0.500030	-0.485274	0.294260
C147	C	0.000023	-0.978917	-0.567237
C148	C	0.500023	-0.478917	-0.067237
C149	C	0.000024	-0.975985	0.265521
C150	C	0.500024	-0.475985	0.765521
C151	C	0.000021	-0.977600	0.357816
C152	C	0.500021	-0.477600	0.857816
H153	H	-0.125667	-1.084837	0.011166
H154	H	0.374333	-0.584837	0.511166
H155	H	0.000023	-0.542730	0.252317
H156	H	0.500023	-0.042730	0.752317
N157	N	0.000029	-1.137943	-0.497272
N158	N	0.500029	-0.637943	0.002728
H159	H	-0.031427	-1.140681	-0.533684
H160	H	0.468573	-0.640681	-0.033684
H161	H	0.000051	-1.186594	-0.462882
H162	H	0.500051	-0.686594	0.037118
H163	H	0.000028	-1.120896	-0.325859
H164	H	0.500028	-0.620896	0.174141
H165	H	0.000032	-0.846062	-0.289788
H166	H	0.500032	-0.346062	0.210212
N167	N	0.000038	-0.823068	-0.455963
N168	N	0.500038	-0.323068	0.044037
H169	H	0.000039	-0.775797	-0.409044
H170	H	0.500039	-0.275797	0.090956
H171	H	-0.031418	-0.819120	-0.491504
H172	H	0.468582	-0.319120	0.008496
N173	N	0.000038	-0.412629	-0.045511
N174	N	0.500038	0.087371	0.454489
H175	H	0.000038	-0.349606	-0.035102
H176	H	0.500038	0.150394	0.464898
H177	H	-0.031418	-0.432116	-0.078314
H178	H	0.468582	0.067884	0.421686
N179	N	-0.229618	-1.099835	-0.003747
N180	N	0.270382	-0.599835	0.496253
H181	H	-0.204578	-1.135709	-0.039486
H182	H	0.295422	-0.635709	0.460514
H183	H	-0.251779	-1.068100	-0.040585
H184	H	0.248221	-0.568100	0.459415
N185	N	0.000037	-0.592883	-0.042343
N186	N	0.500037	-0.092883	0.457657
H187	H	0.000037	-0.558554	-0.091043
H188	H	0.500037	-0.058554	0.408957
H189	H	-0.031420	-0.629290	-0.045002
H190	H	0.468580	-0.129290	0.454998
H191	H	-0.371439	-0.822706	0.272339
H192	H	0.128561	-0.322706	0.772339
N193	N	-0.475390	-0.807735	0.287253
N194	N	0.024610	-0.307735	0.787253
H195	H	-0.497551	-0.839418	0.324145
H196	H	0.002449	-0.339418	0.824145
H197	H	-0.497523	-0.771006	0.255349
H198	H	0.002477	-0.271006	0.755349
N199	N	-0.364298	-1.156511	-0.060164
N200	N	0.135702	-0.656511	0.439836
H201	H	-0.373586	-1.147091	-0.119213
H202	H	0.126414	-0.647091	0.380787
H203	H	-0.373614	-1.215441	-0.050355
H204	H	0.126386	-0.715441	0.449645
N205	N	-0.475307	-1.156493	-0.060188
N206	N	0.024693	-0.656493	0.439812
H207	H	-0.466004	-1.215463	-0.050484
H208	H	0.033996	-0.715463	0.449516
H209	H	-0.465986	-1.146970	-0.119198
H210	H	0.034014	-0.646970	0.380802
N211	N	-0.770251	-1.099873	-0.003792
N212	N	-0.270251	-0.599873	0.496208
H213	H	-0.795269	-1.135755	-0.039533
H214	H	-0.295269	-0.635755	0.460467
H215	H	-0.748094	-1.136549	0.028133
H216	H	-0.248094	-0.636549	0.528133
H217	H	-0.874226	-1.084901	0.011113
H218	H	-0.374226	-0.584901	0.511113
H219	H	-0.874274	-0.879354	0.215844
H220	H	-0.374274	-0.379354	0.715844
H221	H	-0.531686	-0.822710	0.272306
H222	H	-0.031686	-0.322710	0.772306
N223	N	0.000055	-0.371320	0.269364
N224	N	0.500055	0.128680	0.769364
H225	H	0.000061	-0.405654	0.318060
H226	H	0.500061	0.094346	0.818060
H227	H	-0.031393	-0.334873	0.272071
H228	H	0.468607	0.165127	0.772071
N229	N	-0.770325	-0.864374	0.230769
N230	N	-0.270325	-0.364374	0.730769
H231	H	-0.779632	-0.873805	0.289812
H232	H	-0.279632	-0.373805	0.789812
H233	H	-0.779646	-0.805438	0.220972
H234	H	-0.279646	-0.305438	0.720972
N235	N	-0.229699	-0.864333	0.230811
N236	N	0.270301	-0.364333	0.730811
H237	H	-0.204684	-0.828446	0.266553
H238	H	0.295316	-0.328446	0.766553
H239	H	-0.251858	-0.896077	0.267647
H240	H	0.248142	-0.396077	0.767647
H241	H	-0.531591	-1.141534	-0.045278
H242	H	-0.031591	-0.641534	0.454722
N243	N	-0.118671	-0.864324	0.230820
N244	N	0.381329	-0.364324	0.730820
H245	H	-0.080779	-0.872923	0.222256
H246	H	0.419221	-0.372923	0.722256
H247	H	-0.128012	-0.873799	0.289835
H248	H	0.371988	-0.373799	0.789835
H249	H	-0.628577	-0.822715	0.272299
H250	H	-0.128577	-0.322715	0.772299
N251	N	-0.635548	-1.156501	-0.060202
N252	N	-0.135548	-0.656501	0.439798
H253	H	-0.673439	-1.147900	-0.051638
H254	H	-0.173439	-0.647900	0.448362
H255	H	-0.626210	-1.215449	-0.050475
H256	H	-0.126210	-0.715449	0.449525
