data_functionalizedCrystal
_audit_creation_method	'MofGen! by Chris Wilmer'
_symmetry_space_group_name_H-M	'P1'
_symmetry_Int_Tables_number	1
_symmetry_cell_setting	triclinic
loop_
_symmetry_equiv_pos_as_xyz
  x,y,z
_cell_length_a	12.970454
_cell_length_b	12.970454
_cell_length_c	23.196401
_cell_angle_alpha	60.006889
_cell_angle_beta	90.012226
_cell_angle_gamma	59.999320
loop_
_atom_site_label
_atom_site_type_symbol
_atom_site_fract_x
_atom_site_fract_y
_atom_site_fract_z
Zr1	Zr	0.993189	1.128518	-0.075666
O2	O	0.828525	1.343612	-0.167717
O3	O	1.043667	0.913426	-0.047447
O4	O	1.043616	1.128520	-0.167718
O5	O	0.828617	1.128515	0.047425
O6	O	1.213283	1.128519	-0.167720
O7	O	0.828576	1.128518	-0.047446
O8	O	1.213375	0.743755	0.047423
O9	O	0.828525	1.513279	-0.167718
O10	O	1.191817	1.001895	-0.035414
O11	O	1.065226	1.001893	0.035389
O12	O	1.065166	1.255139	-0.106215
O13	O	0.938575	1.255138	-0.035412
Zr14	Zr	1.263854	1.128512	0.075640
Zr15	Zr	1.263789	1.128516	-0.075669
Zr16	Zr	0.993254	1.128514	0.075643
Zr17	Zr	0.993189	1.399118	-0.075667
Zr18	Zr	1.263854	0.857912	0.075641
O19	O	1.213375	1.343604	0.047421
O20	O	1.213283	1.343610	-0.167720
O21	O	0.828617	1.343606	0.047425
O22	O	1.428518	0.913418	0.167691
O23	O	1.428426	0.913424	-0.047451
O24	O	1.043759	0.913420	0.167694
O25	O	1.428426	1.128515	-0.047451
O26	O	1.213427	1.128510	0.167692
O27	O	1.043759	1.128511	0.167694
O28	O	1.428466	1.128512	0.047420
O29	O	1.043616	1.513278	-0.167719
O30	O	1.213427	0.743752	0.167694
O31	O	1.428518	0.743750	0.167692
O32	O	1.428466	0.743754	0.047421
O33	O	0.828577	1.513276	-0.047447
O34	O	1.043667	1.513275	-0.047449
O35	O	1.191877	1.001891	0.106189
O36	O	1.318468	1.001892	0.035386
O37	O	1.191817	1.255136	-0.035415
O38	O	1.065226	1.255135	0.035388
C39	C	1.128521	0.790036	-0.000012
C40	C	1.128521	0.675159	-0.000012
C41	C	0.790042	1.128517	-0.000010
C42	C	0.675165	1.128517	-0.000009
C43	C	1.467001	1.128513	-0.000016
C44	C	1.581877	1.128513	-0.000017
C45	C	1.128440	1.128520	-0.189277
C46	C	1.128413	1.128522	-0.253512
C47	C	1.128521	1.466994	-0.000014
C48	C	1.128521	1.581871	-0.000014
C49	C	1.062309	1.260709	-0.320642
C50	C	1.062341	1.260711	-0.380998
C51	C	1.128460	1.128518	-0.374218
C52	C	1.194579	0.996314	-0.307076
C53	C	1.194555	0.996316	-0.246723
C54	C	1.119071	1.027241	-0.441535
C55	C	1.119085	1.027245	-0.501889
C56	C	1.128540	1.128507	-0.560366
C57	C	1.137954	1.229791	-0.558489
C58	C	1.137931	1.229793	-0.498136
C59	C	1.128493	1.128502	-0.439657
C60	C	1.062467	1.260705	-0.692943
C61	C	1.062508	1.260702	-0.753298
C62	C	1.194738	0.996301	-0.679374
C63	C	1.194705	0.996308	-0.619021
C64	C	1.128563	1.128515	-0.625810
C65	C	1.128602	1.128510	0.189251
C66	C	1.128630	1.128508	0.253486
C67	C	1.467001	0.790034	-0.000015
C68	C	1.581877	0.675157	-0.000016
C69	C	1.128602	0.790030	0.189252
C70	C	1.128630	0.675152	0.253487
C71	C	1.467082	0.790029	0.189249
C72	C	1.581986	0.675150	0.253483
C73	C	0.789961	1.467001	-0.189275
C74	C	0.675057	1.581880	-0.253509
C75	C	0.790042	1.466996	-0.000011
C76	C	0.675165	1.581873	-0.000010
C77	C	1.128440	1.466999	-0.189278
C78	C	1.128413	1.581878	-0.253513
C79	C	1.194753	0.621202	0.320616
C80	C	1.194774	0.513277	0.380977
C81	C	1.128678	0.459296	0.374208
C82	C	1.062547	0.513256	0.307073
C83	C	1.062519	0.621187	0.246713
C84	C	1.702036	0.621202	0.246690
C85	C	1.810011	0.513276	0.307039
C86	C	1.797933	0.459292	0.374180
C87	C	1.677870	0.513250	0.380972
C88	C	1.569898	0.621182	0.320624
C89	C	0.555006	1.635841	-0.246716
C90	C	0.447031	1.743801	-0.307065
C91	C	0.459110	1.797790	-0.374206
C92	C	0.579173	1.743825	-0.380998
C93	C	0.687145	1.635875	-0.320650
C94	C	1.194522	1.635825	-0.246722
C95	C	1.194521	1.743751	-0.307071
C96	C	1.128403	1.797736	-0.374212
C97	C	1.062292	1.743778	-0.381002
C98	C	1.062301	1.635846	-0.320653
H99	H	1.008456	1.368362	-0.326177
H100	H	0.784893	1.591941	-0.326190
H101	H	1.668054	0.469281	0.435647
F102	F	0.992208	0.455789	0.299879
F103	F	1.265167	0.455864	0.452421
H104	H	1.248577	0.665142	0.326141
H105	H	1.008678	0.665098	0.192056
F106	F	1.442134	0.678579	0.327865
F107	F	1.128720	0.344424	0.438456
F108	F	0.991920	1.801257	-0.452464
F109	F	1.912859	0.344419	0.438403
F110	F	1.714920	0.678642	0.175239
H111	H	1.008462	1.591935	-0.326193
H112	H	1.145599	1.312258	-0.496611
F113	F	0.542123	1.578398	-0.175265
F114	F	1.264951	0.855625	-0.299861
H115	H	1.907762	0.469354	0.301496
H116	H	0.349281	1.787721	-0.301521
H117	H	1.248363	1.591888	-0.192058
H118	H	0.371181	1.885690	-0.423340
F119	F	0.992154	1.401401	-0.824748
H120	H	0.588992	1.787797	-0.435672
H121	H	1.248354	1.787672	-0.301529
H122	H	1.008507	1.368357	-0.435665
F123	F	1.148017	1.337571	-0.620722
F124	F	1.128401	1.912610	-0.438435
H125	H	1.008611	1.368356	-0.698472
F126	F	1.265041	0.855615	-0.547572
F127	F	1.109054	0.919460	-0.503883
F128	F	1.109090	0.919394	-0.379284
F129	F	1.265121	0.855611	-0.672154
F130	F	1.264910	0.855618	-0.175272
