data_functionalizedCrystal
_audit_creation_method	'MofGen! by Chris Wilmer'
_symmetry_space_group_name_H-M	'P1'
_symmetry_Int_Tables_number	1
_symmetry_cell_setting	triclinic
loop_
_symmetry_equiv_pos_as_xyz
  x,y,z
_cell_length_a	12.837942
_cell_length_b	19.288864
_cell_length_c	17.766277
_cell_angle_alpha	90.023209
_cell_angle_beta	89.994736
_cell_angle_gamma	91.017407
loop_
_atom_site_label
_atom_site_type_symbol
_atom_site_fract_x
_atom_site_fract_y
_atom_site_fract_z
O1	O	0.129276	-0.930181	-0.062838
O2	O	0.146715	-0.729111	-0.062786
O3	O	-0.012886	-0.825187	-0.062806
O4	O	0.288878	-0.834104	-0.062818
O5	O	-0.012894	-0.825168	0.062382
O6	O	0.146707	-0.729091	0.062402
O7	O	0.129268	-0.930161	0.062351
Cu8	Cu	0.137987	-0.829625	0.073807
Cu9	Cu	0.137996	-0.829647	-0.074243
O10	O	0.288870	-0.834085	0.062371
C11	C	0.146150	-0.703186	-0.000185
C12	C	0.144466	-0.625968	-0.000166
C13	C	-0.051497	-0.822165	-0.000212
C14	C	-0.166532	-0.813181	-0.000211
N15	N	0.137979	-0.829614	0.177938
C16	C	-0.407995	-0.921187	-0.000254
C17	C	-0.516081	-0.912748	-0.000253
C18	C	-0.490793	-0.787867	-0.000213
C19	C	-0.382707	-0.796305	-0.000214
C20	C	-0.341312	-0.862967	-0.000233
C21	C	-0.233223	-0.871405	-0.000229
C22	C	-0.207938	-0.746524	-0.000195
C23	C	-0.316024	-0.738086	-0.000194
C24	C	0.327480	-0.837107	-0.000225
C25	C	0.442515	-0.846091	-0.000231
C26	C	0.129833	-0.956086	-0.000252
C27	C	0.131518	-1.033304	-0.000276
C28	C	0.238113	-0.587666	-0.000181
C29	C	0.236530	-0.515111	-0.000189
C30	C	0.141295	-0.480860	-0.000197
C31	C	0.047636	-0.519171	-0.000178
C32	C	0.049221	-0.591725	-0.000162
C33	C	0.066433	-0.367493	-0.044079
C34	C	0.064852	-0.294941	-0.044099
C35	C	0.136402	-0.257081	-0.000243
C36	C	0.209552	-0.291782	0.043625
C37	C	0.211137	-0.364335	0.043640
C38	C	0.139566	-0.402188	-0.000214
C39	C	0.228340	-0.140106	-0.000266
C40	C	0.226753	-0.067550	-0.000270
C41	C	0.037857	-0.071611	-0.000265
C42	C	0.039446	-0.144166	-0.000254
C43	C	0.134690	-0.178409	-0.000258
N44	N	0.137996	-0.829663	-0.178373
C45	C	0.067342	-0.872174	0.217316
C46	C	0.067338	-0.872178	0.296118
C47	C	0.137988	-0.829629	0.335538
C48	C	0.208630	-0.787060	0.296151
C49	C	0.208626	-0.787052	0.217350
C50	C	0.232410	-0.826778	0.460374
C51	C	0.232416	-0.826790	0.539173
C52	C	0.138000	-0.829648	0.578584
C53	C	0.043575	-0.832508	0.539188
C54	C	0.043571	-0.832501	0.460387
C55	C	0.138000	-0.829632	0.420984
C56	C	0.067352	-0.872215	0.703409
C57	C	0.067346	-0.872213	0.782212
C58	C	0.208647	-0.787100	0.782243
C59	C	0.208645	-0.787097	0.703442
C60	C	0.137998	-0.829658	0.664029
H61	H	-0.199522	-0.925684	-0.000242
Cl62	Cl	-0.542852	-0.704071	-0.000212
H63	H	-0.033307	-0.834835	0.571275
H64	H	-0.570371	-0.960157	-0.000272
H65	H	0.270694	-0.392586	0.079361
H66	H	0.305893	-0.167988	-0.000258
H67	H	0.266168	-0.752444	0.671378
Cl68	Cl	-0.368075	-0.654287	-0.000176
Cl69	Cl	0.297435	-0.733545	0.167843
Cl70	Cl	-0.355951	-1.004987	-0.000259
H71	H	0.009824	-0.906868	0.671317
Cl72	Cl	-0.068516	-0.639878	-0.000143
H73	H	-0.033313	-0.834828	0.428314
H74	H	-0.039685	-0.043725	-0.000319
H75	H	0.267814	-0.260958	0.079337
H76	H	0.266168	-0.752453	0.814339
Cl77	Cl	0.351119	-0.823200	0.588692
Cl78	Cl	0.357848	-0.630711	-0.000182
H79	H	-0.153632	-0.699118	-0.000172
Cl80	Cl	0.354267	-0.466950	-0.000207
Cl81	Cl	-0.072088	-0.476114	-0.000183
H82	H	-0.036812	-0.175352	-0.000246
H83	H	0.005293	-0.266693	-0.079822
Cl84	Cl	0.344492	-0.019398	-0.000285
Cl85	Cl	0.351118	-0.823249	0.410836
Cl86	Cl	-0.023526	-0.415081	-0.099218
H87	H	0.009816	-0.906828	0.185228
Cl88	Cl	-0.021470	-0.925687	0.345630
H89	H	0.009819	-0.906869	0.814274
H90	H	0.266153	-0.752415	0.328251
