data_functionalizedCrystal
_audit_creation_method	'MofGen! by Chris Wilmer'
_symmetry_space_group_name_H-M	'P1'
_symmetry_Int_Tables_number	1
_symmetry_cell_setting	triclinic
loop_
_symmetry_equiv_pos_as_xyz
  x,y,z
_cell_length_a	13.897448
_cell_length_b	11.169417
_cell_length_c	13.897433
_cell_angle_alpha	90.046319
_cell_angle_beta	90.068930
_cell_angle_gamma	90.020447
loop_
_atom_site_label
_atom_site_type_symbol
_atom_site_fract_x
_atom_site_fract_y
_atom_site_fract_z
Zn1	Zn	0.383572	-1.835199	-0.545343
Zn2	Zn	0.545009	-1.834963	-0.384051
Zn3	Zn	0.383732	-1.634392	-0.384067
Zn4	Zn	0.544829	-1.634460	-0.545310
O5	O	0.464286	-1.734754	-0.464693
O6	O	0.404995	-2.003118	-0.523954
O7	O	0.523757	-1.808230	-0.249072
O8	O	0.248729	-1.661100	-0.405481
O9	O	0.523602	-2.002944	-0.405454
O10	O	0.248612	-1.808632	-0.523970
O11	O	0.405268	-1.660871	-0.249083
O12	O	0.405094	-1.466452	-0.405449
O13	O	0.523296	-1.661216	-0.680297
O14	O	0.523451	-1.466502	-0.523914
O15	O	0.404821	-1.808698	-0.680321
O16	O	0.679967	-1.808296	-0.405422
O17	O	0.679835	-1.660987	-0.523899
C18	C	0.714900	-1.734656	-0.464676
C19	C	0.822114	-1.734724	-0.464702
C20	C	0.464271	-1.422929	-0.464681
C21	C	0.464288	-1.289529	-0.464698
C22	C	0.464021	-1.734991	-0.716286
C23	C	0.463908	-1.735092	-0.823501
C24	C	1.018409	-1.734842	-0.464771
C25	C	0.909176	-1.734773	-0.464735
C26	C	1.212692	-1.734875	-0.464742
C27	C	1.105479	-1.734900	-0.464792
C28	C	0.464301	-2.047796	-0.464706
C29	C	0.464307	-2.181196	-0.464712
C30	C	0.464480	-1.734587	-0.214078
C31	C	0.464321	-1.734718	-0.106865
C32	C	0.464038	-1.734985	0.089430
C33	C	0.464198	-1.734841	-0.019802
