data_functionalizedCrystal
_audit_creation_method	'MofGen! by Chris Wilmer'
_symmetry_space_group_name_H-M	'P1'
_symmetry_Int_Tables_number	1
_symmetry_cell_setting	triclinic
loop_
_symmetry_equiv_pos_as_xyz
  x,y,z
_cell_length_a	6.817900
_cell_length_b	17.110477
_cell_length_c	17.329378
_cell_angle_alpha	92.672908
_cell_angle_beta	103.025558
_cell_angle_gamma	99.060298
loop_
_atom_site_label
_atom_site_type_symbol
_atom_site_fract_x
_atom_site_fract_y
_atom_site_fract_z
V1	V	-3.991497	-0.093314	-0.244943
O2	O	-4.002356	0.021128	-0.240384
O3	O	-3.921448	-0.201035	-0.243167
O4	O	-3.937665	-0.084576	-0.351816
O5	O	-3.986026	-0.096137	-0.130983
V6	V	-4.478634	-0.080489	-0.231324
O7	O	-4.244828	-0.121449	-0.274816
O8	O	-4.675500	-0.052354	-0.201451
O9	O	-4.325476	0.027232	-0.233100
O10	O	-4.585172	-0.194931	-0.235883
O11	O	-4.601501	-0.077666	-0.345284
O12	O	-4.309259	-0.089227	-0.124451
C13	C	-3.761358	-0.227523	-0.239277
C14	C	-3.785335	-0.315538	-0.238538
C15	C	-3.782044	-0.078967	-0.377869
C16	C	-3.819171	-0.072535	-0.465238
C17	C	-3.861617	-0.141242	-0.517441
C18	C	-3.896510	-0.135197	-0.599533
C19	C	-3.888942	-0.060444	-0.629421
C20	C	-3.846497	0.008268	-0.577212
C21	C	-3.811619	0.002222	-0.495122
C22	C	-3.993012	-0.038601	-0.876724
C23	C	-4.027888	-0.032560	-0.958821
C24	C	-4.077903	-0.176025	-0.981137
C25	C	-4.043010	-0.182064	-0.899043
C26	C	-4.000579	-0.113353	-0.846842
C27	C	-3.924601	-0.054263	-0.713333
C28	C	-3.964935	-0.119535	-0.762932
C29	C	-3.977684	-0.360660	-0.242107
C30	C	-4.000204	-0.443360	-0.241417
C31	C	-3.830369	-0.480937	-0.237152
C32	C	-3.638005	-0.435809	-0.233585
C33	C	-3.615491	-0.353111	-0.234281
C34	C	-3.889290	-0.730444	-0.234861
C35	C	-3.911819	-0.813148	-0.234163
C36	C	-4.274017	-0.820693	-0.241996
C37	C	-4.251484	-0.737993	-0.242687
C38	C	-4.059125	-0.692873	-0.239124
C39	C	-3.853382	-0.565469	-0.236444
C40	C	-4.036117	-0.608342	-0.239838
C41	C	-4.148908	0.053715	-0.236988
C42	C	-4.104168	0.141731	-0.237732
C43	C	-4.128222	-0.094839	-0.098394
C44	C	-4.070335	-0.101267	-0.011024
H45	H	-3.867770	-0.202113	-0.493113
H46	H	-3.840349	0.069133	-0.601554
H47	H	-3.773517	-0.843741	-0.230708
O48	O	-3.702326	-0.686646	-0.231249
C49	C	-3.353439	-0.648720	-0.156387
C50	C	-3.565097	-0.698347	-0.160370
H51	H	-3.242421	-0.658176	-0.099094
H52	H	-3.366344	-0.583140	-0.157565
H53	H	-3.294825	-0.668149	-0.209592
H54	H	-3.623834	-0.678987	-0.107176
H55	H	-3.552068	-0.763916	-0.159230
H56	H	-3.715105	-0.596073	-0.232970
H57	H	-3.971105	-0.180398	-0.738594
H58	H	-4.174396	-0.577744	-0.243314
O59	O	-3.937610	-0.202016	-0.650130
C60	C	-3.983617	-0.344953	-0.663602
C61	C	-3.937006	-0.269340	-0.606213
H62	H	-3.983187	-0.399404	-0.628119
H63	H	-3.862130	-0.342928	-0.699507
H64	H	-4.140201	-0.348501	-0.705679
H65	H	-3.780480	-0.265744	-0.564087
H66	H	-4.058618	-0.271396	-0.570364
H67	H	-4.049185	-0.242936	-0.874715
O68	O	-4.119252	-0.242690	-1.031958
C69	C	-4.195044	-0.296961	-1.168311
C70	C	-4.148274	-0.221397	-1.110847
H71	H	-4.218478	-0.279772	-1.232104
H72	H	-4.339624	-0.336357	-1.160804
H73	H	-4.061495	-0.330699	-1.154556
H74	H	-4.281696	-0.187596	-1.124566
H75	H	-4.003624	-0.182059	-1.118365
H76	H	-3.777059	0.058170	-0.452618
H77	H	-4.021764	0.028314	-0.983153
H78	H	-3.958464	0.017349	-0.834231
O79	O	-4.187057	-0.487245	-0.245003
C80	C	-4.455034	-0.591273	-0.317092
C81	C	-4.243436	-0.541614	-0.313148
H82	H	-4.500663	-0.635254	-0.372174
H83	H	-4.572681	-0.550261	-0.320300
H84	H	-4.448340	-0.625103	-0.261681
H85	H	-4.249930	-0.507778	-0.368546
H86	H	-4.125876	-0.582667	-0.309901
O87	O	-3.917559	0.018299	-0.742472
C88	C	-4.100076	0.104885	-0.825980
C89	C	-4.108305	0.022675	-0.793048
H90	H	-4.254288	0.108457	-0.866865
H91	H	-3.976234	0.114135	-0.860841
H92	H	-4.063638	0.152951	-0.774560
H93	H	-4.144805	-0.025441	-0.844421
H94	H	-4.232105	0.013494	-0.758164
O95	O	-4.142567	-0.324083	-0.246352
C96	C	-4.359840	-0.241367	-0.320104
C97	C	-4.173035	-0.282728	-0.315381
H98	H	-4.384558	-0.207935	-0.375918
H99	H	-4.332223	-0.197761	-0.265415
H100	H	-4.501134	-0.287839	-0.322498
H101	H	-4.031657	-0.236314	-0.313012
H102	H	-4.200827	-0.326349	-0.370069
H103	H	-3.499727	-0.466411	-0.230118
O104	O	-4.416357	-0.701409	-0.246939
C105	C	-4.633579	-0.618677	-0.320692
C106	C	-4.446800	-0.660054	-0.315968
H107	H	-4.658277	-0.585246	-0.376507
H108	H	-4.605945	-0.575069	-0.266004
H109	H	-4.774892	-0.665139	-0.323087
H110	H	-4.305403	-0.613650	-0.313599
H111	H	-4.474609	-0.703677	-0.370656
H112	H	-4.430629	-0.857439	-0.244897
H113	H	-3.458863	-0.316374	-0.231378
