data_functionalizedCrystal
_audit_creation_method	'MofGen! by Chris Wilmer'
_symmetry_space_group_name_H-M	'P1'
_symmetry_Int_Tables_number	1
_symmetry_cell_setting	triclinic
loop_
_symmetry_equiv_pos_as_xyz
  x,y,z
_cell_length_a	15.297475
_cell_length_b	29.839131
_cell_length_c	15.296720
_cell_angle_alpha	80.368922
_cell_angle_beta	88.382886
_cell_angle_gamma	80.335685
loop_
_atom_site_label
_atom_site_type_symbol
_atom_site_fract_x
_atom_site_fract_y
_atom_site_fract_z
Zn1	Zn	1.253272	-0.349615	0.726427
Zn2	Zn	1.753272	0.150385	1.226427
Zn3	Zn	1.278510	-0.414300	0.579911
Zn4	Zn	1.778510	0.085700	1.079911
Zn5	Zn	1.132159	-0.324379	0.554680
Zn6	Zn	1.632159	0.175621	1.054680
Zn7	Zn	1.106738	-0.409884	0.701042
Zn8	Zn	1.606738	0.090116	1.201042
O9	O	1.192670	-0.374545	0.640515
O10	O	1.692670	0.125455	1.140515
O11	O	1.379193	-0.370605	0.728175
O12	O	1.879193	0.129395	1.228175
O13	O	1.280298	-0.393658	0.453994
O14	O	1.780298	0.106342	0.953994
O15	O	1.148301	-0.264872	0.577528
O16	O	1.648301	0.235128	1.077528
O17	O	1.397736	-0.418129	0.620530
O18	O	1.897736	0.081871	1.120530
O19	O	1.237282	-0.283413	0.703709
O20	O	1.737282	0.216587	1.203709
O21	O	1.172774	-0.327594	0.435457
O22	O	1.672774	0.172406	0.935457
O23	O	1.006213	-0.323312	0.552912
O24	O	1.506213	0.176688	1.052912
O25	O	1.104975	-0.410603	0.826979
O26	O	1.604975	0.089397	1.326979
O27	O	0.987537	-0.386133	0.660443
O28	O	1.487537	0.113867	1.160443
O29	O	1.212633	-0.366324	0.845630
O30	O	1.712633	0.133676	1.345630
O31	O	1.255648	-0.476569	0.595915
O32	O	1.755648	0.023431	1.095915
O33	O	1.129448	-0.473325	0.684909
O34	O	1.629448	0.026675	1.184909
C35	C	0.965093	-0.351505	0.601186
C36	C	1.465093	0.148495	1.101186
C37	C	0.867731	-0.341661	0.584381
C38	C	1.367731	0.158339	1.084381
C39	C	0.554547	-0.444906	0.760621
C40	C	1.054547	0.055094	1.260621
C41	C	0.646024	-0.454158	0.776407
C42	C	1.146024	0.045842	1.276407
C43	C	0.701455	-0.426035	0.728402
C44	C	1.201455	0.073965	1.228402
C45	C	0.665401	-0.388657	0.664608
C46	C	1.165401	0.111343	1.164608
C47	C	0.573916	-0.379406	0.648816
C48	C	1.073916	0.120594	1.148816
C49	C	0.720824	-0.360535	0.616597
C50	C	1.220824	0.139465	1.116597
C51	C	0.684770	-0.323158	0.552803
C52	C	1.184770	0.176842	1.052803
C53	C	0.593293	-0.313908	0.537014
C54	C	1.093293	0.186092	1.037014
C55	C	0.537862	-0.342032	0.585018
C56	C	1.037862	0.157968	1.085018
C57	C	0.812309	-0.369786	0.632390
C58	C	1.312309	0.130214	1.132390
C59	C	0.831678	-0.304287	0.520584
C60	C	1.331678	0.195713	1.020584
C61	C	0.740201	-0.295034	0.504798
C62	C	1.240201	0.204966	1.004798
C63	C	1.192549	-0.491249	0.640418
C64	C	1.692549	0.008751	1.140418
C65	C	1.192572	-0.541185	0.640420
C66	C	1.692572	-0.041185	1.140420
C67	C	1.238976	-0.860469	0.706296
C68	C	1.738976	-0.360469	1.206296
C69	C	1.239062	-1.048155	0.706365
C70	C	1.739062	-0.548155	1.206365
O71	O	1.278395	-1.080600	0.762297
O72	O	1.778395	-0.580600	1.262297
N73	N	1.192802	-1.062009	0.640638
N74	N	1.692802	-0.562009	1.140638
C75	C	1.146512	-1.028937	0.574893
C76	C	1.646512	-0.528937	1.074893
O77	O	1.107159	-1.045027	0.518995
O78	O	1.607159	-0.545027	1.018995
C79	C	1.146421	-0.841251	0.574828
C80	C	1.646421	-0.341251	1.074828
C81	C	1.192692	-0.827401	0.640554
C82	C	1.692692	-0.327401	1.140554
C83	C	1.285242	-0.846618	0.772017
C84	C	1.785242	-0.346618	1.272017
C85	C	1.285224	-0.799699	0.771996
C86	C	1.785224	-0.299699	1.271996
C87	C	1.238940	-0.766631	0.706254
C88	C	1.738940	-0.266631	1.206254
C89	C	1.192674	-0.780482	0.640533
C90	C	1.692674	-0.280482	1.140533
C91	C	1.100126	-0.808180	0.509087
C92	C	1.600126	-0.308180	1.009087
C93	C	1.100106	-0.761257	0.509078
C94	C	1.600106	-0.261257	1.009078
C95	C	1.146377	-0.747407	0.574804
C96	C	1.646377	-0.247407	1.074804
C97	C	1.146372	-0.700496	0.574771
C98	C	1.646372	-0.200496	1.074771
N99	N	1.192632	-0.686642	0.640497
N100	N	1.692632	-0.186642	1.140497
C101	C	1.238916	-0.719710	0.706239
C102	C	1.738916	-0.219710	1.206239
C103	C	1.146564	-1.127475	0.574930
C104	C	1.646564	-0.627475	1.074930
C105	C	1.146588	-1.174396	0.574945
C106	C	1.646588	-0.674396	1.074945
C107	C	1.239137	-1.193612	0.706418
C108	C	1.739137	-0.693612	1.206418
C109	C	1.239118	-1.146690	0.706399
C110	C	1.739118	-0.646690	1.206399
C111	C	1.192824	-1.113622	0.640657
C112	C	1.692824	-0.613622	1.140657
C113	C	1.238876	-0.621177	0.706190
C114	C	1.738876	-0.121177	1.206190
C115	C	1.238857	-0.574253	0.706162
C116	C	1.738857	-0.074253	1.206162
C117	C	1.146304	-0.555042	0.574692
C118	C	1.646304	-0.055042	1.074692
C119	C	1.146326	-0.601962	0.574717
C120	C	1.646326	-0.101962	1.074717
C121	C	1.192614	-0.635029	0.640474
C122	C	1.692614	-0.135029	1.140474
O123	O	1.107051	-0.668027	0.518873
O124	O	1.607051	-0.168027	1.018873
O125	O	1.278247	-0.703611	0.762140
O126	O	1.778247	-0.203611	1.262140
C127	C	1.238994	-0.907388	0.706316
C128	C	1.738994	-0.407388	1.206316
C129	C	1.192728	-0.921239	0.640595
C130	C	1.692728	-0.421239	1.140595
C131	C	1.146444	-0.888171	0.574854
C132	C	1.646444	-0.388171	1.074854
C133	C	1.192752	-0.968160	0.640610
C134	C	1.692752	-0.468160	1.140610
C135	C	1.239036	-1.001228	0.706352
C136	C	1.739036	-0.501228	1.206352
C137	C	1.285296	-0.987374	0.772079
C138	C	1.785296	-0.487374	1.272079
C139	C	1.285278	-0.940456	0.772058
C140	C	1.785278	-0.440456	1.272058
C141	C	1.100183	-0.902024	0.509127
C142	C	1.600183	-0.402024	1.009127
C143	C	1.100206	-0.948944	0.509152
C144	C	1.600206	-0.448944	1.009152
C145	C	1.146490	-0.982012	0.574894
C146	C	1.646490	-0.482012	1.074894
C147	C	1.421135	-0.397675	0.679998
C148	C	1.921135	0.102325	1.179998
C149	C	1.518493	-0.407531	0.696824
C150	C	2.018493	0.092469	1.196824
C151	C	1.153153	-0.390786	0.868974
C152	C	1.653153	0.109214	1.368974
C153	C	1.136313	-0.397707	0.966330
C154	C	1.636313	0.102293	1.466330
C155	C	1.192812	-0.257389	0.640636
C156	C	1.692812	0.242611	1.140636
C157	C	1.192872	-0.207464	0.640687
C158	C	1.692872	0.292536	1.140687
C159	C	1.232083	-0.358340	0.412953
C160	C	1.732083	0.141660	0.912953
C161	C	1.249093	-0.351309	0.315627
C162	C	1.749093	0.148691	0.815627
C163	C	1.313058	-0.325004	1.279603
C164	C	1.813058	0.174996	1.779603
C165	C	1.328886	-0.318503	1.188133
C166	C	1.828886	0.181497	1.688133
C167	C	1.280744	-0.338303	1.132678
C168	C	1.780744	0.161697	1.632678
C169	C	1.216772	-0.364606	1.168701
C170	C	1.716772	0.135394	1.668701
C171	C	1.200948	-0.371111	1.260181
C172	C	1.700948	0.128889	1.760181
C173	C	1.168634	-0.384410	1.113256
C174	C	1.668634	0.115590	1.613256
C175	C	1.104662	-0.410713	1.149279
C176	C	1.604662	0.089287	1.649279
C177	C	1.088841	-0.417216	1.240750
C178	C	1.588841	0.082784	1.740750
C179	C	1.136983	-0.397416	1.296205
C180	C	1.636983	0.102584	1.796205
C181	C	1.184458	-0.377905	1.021777
C182	C	1.684458	0.122095	1.521777
C183	C	1.072348	-0.424012	1.002355
C184	C	1.572348	0.075988	1.502355
C185	C	1.056520	-0.430513	1.093824
C186	C	1.556520	0.069487	1.593824
H187	H	0.675373	-0.484591	0.828346
H188	H	1.175373	0.015409	1.328346
C189	C	1.290044	-1.229991	0.778736
C190	C	1.790044	-0.729991	1.278736
H191	H	1.283421	-1.259918	0.769330
H192	H	1.783421	-0.759918	1.269330
H193	H	1.351114	-1.227332	0.776148
H194	H	1.851114	-0.727332	1.276148
H195	H	1.266982	-1.225173	0.835350
H196	H	1.766982	-0.725173	1.335350
H197	H	1.062405	-0.734334	0.455543
H198	H	1.562405	-0.234334	0.955543
H199	H	1.352253	-0.308889	1.324763
H200	H	1.852253	0.191111	1.824763
C201	C	0.553636	-0.272797	0.466839
C202	C	1.053636	0.227203	0.966839
H203	H	0.599746	-0.257369	0.440515
H204	H	1.099746	0.242631	0.940515
H205	H	0.524537	-0.283621	0.422444
H206	H	1.024537	0.216379	0.922444
H207	H	0.512167	-0.252030	0.494273
H208	H	1.012167	0.247970	0.994273
H209	H	1.108623	-0.528111	0.521163
H210	H	1.608623	-0.028111	1.021163
C211	C	0.802075	-0.436207	0.745776
C212	C	1.302075	0.063793	1.245776
H213	H	0.815608	-0.462492	0.790650
H214	H	1.315608	0.037508	1.290650
H215	H	0.832542	-0.441998	0.692795
H216	H	1.332542	0.058002	1.192795
H217	H	0.820151	-0.410407	0.764623
H218	H	1.320151	0.089593	1.264623
H219	H	0.876810	-0.281387	0.481493
H220	H	1.376810	0.218613	0.981493
C221	C	0.700539	-0.253923	0.434625
C222	C	1.200539	0.246077	0.934625
H223	H	0.746647	-0.238494	0.408298
H224	H	1.246647	0.261506	0.908298
H225	H	0.671438	-0.264748	0.390232
H226	H	1.171438	0.235252	0.890232
H227	H	0.659071	-0.233157	0.462061
H228	H	1.159071	0.266843	0.962061
H229	H	1.293634	-0.333008	1.058200
H230	H	1.793634	0.166992	1.558200
H231	H	1.322956	-0.929183	0.825578
H232	H	1.822956	-0.429183	1.325578
C233	C	0.986160	-0.459448	1.133453
C234	C	1.486160	0.040552	1.633453
H235	H	0.959747	-0.470307	1.087330
H236	H	1.459747	0.029693	1.587330
H237	H	1.013469	-0.484947	1.174909
H238	H	1.513469	0.015053	1.674909
H239	H	0.941842	-0.440934	1.162557
H240	H	1.441842	0.059066	1.662557
C241	C	1.019386	-0.445792	0.941363
C242	C	1.519386	0.054208	1.441363
H243	H	1.037965	-0.438146	0.881724
H244	H	1.537965	0.061854	1.381724
H245	H	1.029572	-0.478334	0.958533
H246	H	1.529572	0.021666	1.458533
H247	H	0.957946	-0.434322	0.946190
H248	H	1.457946	0.065678	1.446190
H249	H	1.062529	-0.960215	0.455622
H250	H	1.562529	-0.460215	0.955622
H251	H	1.062492	-0.875103	0.455593
H252	H	1.562492	-0.375103	0.955593
C253	C	0.493574	-0.475837	0.813416
C254	C	0.993574	0.024163	1.313416
H255	H	0.433929	-0.464972	0.794876
H256	H	0.933929	0.035028	1.294876
H257	H	0.510772	-0.506605	0.803065
H258	H	1.010772	-0.006605	1.303065
H259	H	0.498395	-0.475010	0.874887
H260	H	0.998395	0.024990	1.374887
C261	C	0.437239	-0.331862	0.567641
C262	C	0.937239	0.168138	1.067641
H263	H	0.409395	-0.353967	0.605363
H264	H	0.909395	0.146033	1.105363
H265	H	0.413923	-0.301878	0.579323
H266	H	0.913923	0.198122	1.079323
H267	H	0.426321	-0.333477	0.507508
H268	H	0.926321	0.166523	1.007508
H269	H	1.236543	-0.356489	0.992456
H270	H	1.736543	0.143511	1.492456
C271	C	1.289748	-0.559020	0.778469
C272	C	1.789748	-0.059020	1.278469
H273	H	1.317305	-0.585437	0.817630
H274	H	1.817305	-0.085437	1.317630
H275	H	1.333725	-0.542195	0.751596
H276	H	1.833725	-0.042195	1.251596
H277	H	1.249596	-0.540038	0.810803
H278	H	1.749596	-0.040038	1.310803
H279	H	1.108920	-1.185669	0.521417
H280	H	1.608920	-0.685669	1.021417
C281	C	1.119575	-0.404567	1.396823
C282	C	1.619575	0.095433	1.896823
H283	H	1.157410	-0.389008	1.424687
H284	H	1.657410	0.110992	1.924687
H285	H	1.059480	-0.392549	1.407755
H286	H	1.559480	0.107451	1.907755
H287	H	1.131113	-0.436559	1.420106
H288	H	1.631113	0.063441	1.920106
H289	H	1.108865	-1.100553	0.521393
H290	H	1.608865	-0.600553	1.021393
C291	C	1.018478	-0.446150	1.280375
C292	C	1.518478	0.053850	1.780375
H293	H	0.992066	-0.457008	1.234249
H294	H	1.492066	0.042992	1.734249
H295	H	1.045784	-0.471651	1.321829
H296	H	1.545784	0.028349	1.821829
H297	H	0.974160	-0.427637	1.309479
H298	H	1.474160	0.072363	1.809479
H299	H	1.062448	-0.819448	0.455566
H300	H	1.562448	-0.319448	0.955566
C301	C	1.289800	-0.657544	0.778515
C302	C	1.789800	-0.157544	1.278515
H303	H	1.317356	-0.642569	0.817642
H304	H	1.817356	-0.142569	1.317642
H305	H	1.249684	-0.675172	0.810872
H306	H	1.749684	-0.175172	1.310872
H307	H	1.333796	-0.677324	0.751641
H308	H	1.833796	-0.177324	1.251641
H309	H	1.322899	-0.788426	0.825518
H310	H	1.822899	-0.288426	1.325518
C311	C	1.336166	-0.882986	0.844335
C312	C	1.836166	-0.382986	1.344335
H313	H	1.363718	-0.868010	0.883463
H314	H	1.863718	-0.368010	1.383463
H315	H	1.296054	-0.900617	0.876691
H316	H	1.796054	-0.400617	1.376691
H317	H	1.380165	-0.902764	0.817460
H318	H	1.880165	-0.402764	1.317460
H319	H	1.322986	-1.014307	0.825606
H320	H	1.822986	-0.514307	1.325606
C321	C	1.095432	-0.617198	0.502420
C322	C	1.595432	-0.117198	1.002420
H323	H	1.067861	-0.590782	0.463267
H324	H	1.567861	-0.090782	0.963267
H325	H	1.135565	-0.636185	0.470086
H326	H	1.635565	-0.136185	0.970086
H327	H	1.051450	-0.634019	0.529312
H328	H	1.551450	-0.134019	1.029312
C329	C	1.289997	-1.131458	0.778709
C330	C	1.789997	-0.631458	1.278709
H331	H	1.317556	-1.157875	0.817866
H332	H	1.817556	-0.657875	1.317866
H333	H	1.333972	-1.114628	0.751844
H334	H	1.833972	-0.614628	1.251844
H335	H	1.249840	-1.112480	0.811046
H336	H	1.749840	-0.612480	1.311046
C337	C	1.399245	-0.289571	1.148513
C338	C	1.899245	0.210429	1.648513
H339	H	1.425645	-0.278707	1.194637
H340	H	1.925645	0.221293	1.694637
H341	H	1.443560	-0.308080	1.119406
H342	H	1.943560	0.191920	1.619406
H343	H	1.371932	-0.264068	1.107059
H344	H	1.871932	0.235932	1.607059
H345	H	0.841655	-0.400219	0.684332
H346	H	1.341655	0.099781	1.184332
