data_functionalizedCrystal
_audit_creation_method	'MofGen! by Chris Wilmer'
_symmetry_space_group_name_H-M	'P1'
_symmetry_Int_Tables_number	1
_symmetry_cell_setting	triclinic
loop_
_symmetry_equiv_pos_as_xyz
  x,y,z
_cell_length_a	19.188931
_cell_length_b	19.188929
_cell_length_c	17.666332
_cell_angle_alpha	89.971817
_cell_angle_beta	89.991846
_cell_angle_gamma	83.144782
loop_
_atom_site_label
_atom_site_type_symbol
_atom_site_fract_x
_atom_site_fract_y
_atom_site_fract_z
O1	O	0.926150	0.087169	-0.062957
O2	O	1.426150	0.587169	0.437043
O3	O	0.722839	0.098903	-0.062969
O4	O	1.222839	0.598903	0.437031
O5	O	0.830361	-0.008620	-0.062916
O6	O	1.330361	0.491380	0.437084
O7	O	0.818627	0.194691	-0.063010
O8	O	1.318627	0.694691	0.436990
O9	O	0.830342	-0.008625	0.062981
O10	O	1.330342	0.491375	0.562981
O11	O	0.722819	0.098898	0.062927
O12	O	1.222819	0.598898	0.562927
O13	O	0.926130	0.087163	0.062940
O14	O	1.426130	0.587163	0.562940
Cu15	Cu	0.824473	0.093030	0.074429
Cu16	Cu	1.324473	0.593030	0.574429
Cu17	Cu	0.824496	0.093036	-0.074459
Cu18	Cu	1.324496	0.593036	0.425541
O19	O	0.818608	0.194686	0.062886
O20	O	1.318608	0.694686	0.562886
C21	C	0.696818	0.098520	-0.000022
C22	C	1.196818	0.598520	0.499978
C23	C	0.619313	0.097380	-0.000024
C24	C	1.119313	0.597380	0.499976
C25	C	0.952151	0.087546	-0.000010
C26	C	1.452151	0.587546	0.499990
C27	C	1.029656	0.088687	-0.000012
C28	C	1.529656	0.588687	0.499988
C29	C	0.829972	-0.034634	0.000043
C30	C	1.329972	0.465366	0.500043
C31	C	0.828831	-0.112138	0.000074
C32	C	1.328831	0.387862	0.500074
C33	C	0.818997	0.220700	-0.000074
C34	C	1.318997	0.720700	0.499926
C35	C	0.820138	0.298204	-0.000110
C36	C	1.320138	0.798204	0.499890
C37	C	1.074580	0.025596	0.000010
C38	C	1.574580	0.525596	0.500010
C39	C	1.147403	0.026667	0.000014
C40	C	1.647403	0.526667	0.500014
C41	C	1.175300	0.090834	-0.000019
C42	C	1.675300	0.590834	0.499981
C43	C	1.130366	0.153933	-0.000038
C44	C	1.630366	0.653933	0.499962
C45	C	1.057544	0.152859	-0.000034
C46	C	1.557544	0.652859	0.499966
N47	N	1.283301	0.139883	-0.042900
N48	N	1.783301	0.639883	0.457100
N49	N	1.352480	0.140898	-0.042905
N50	N	1.852480	0.640898	0.457095
C51	C	1.394709	0.094072	-0.000028
C52	C	1.894709	0.594072	0.499972
N53	N	1.365147	0.046181	0.042844
N54	N	1.865147	0.546181	0.542844
N55	N	1.295962	0.045163	0.042845
N56	N	1.795962	0.545163	0.542845
C57	C	1.254263	0.092005	-0.000023
C58	C	1.754263	0.592005	0.499977
C59	C	1.518597	0.032139	-0.000000
C60	C	2.018597	0.532139	0.500000
C61	C	1.591422	0.033213	0.000009
C62	C	2.091422	0.533213	0.500009
C63	C	1.574383	0.160480	-0.000051
C64	C	2.074383	0.660480	0.499949
C65	C	1.501560	0.159404	-0.000053
C66	C	2.001560	0.659404	0.499947
C67	C	1.473671	0.095231	-0.000031
C68	C	1.973671	0.595231	0.499969
N69	N	0.824462	0.093025	0.179148
N70	N	1.324462	0.593025	0.679148
C71	C	0.757047	0.343128	-0.000099
C72	C	1.257047	0.843128	0.499901
C73	C	0.758119	0.415952	-0.000081
C74	C	1.258119	0.915952	0.499919
C75	C	0.822285	0.443849	-0.000060
C76	C	1.322285	0.943849	0.499940
C77	C	0.885384	0.398915	-0.000076
C78	C	1.385384	0.898915	0.499924
C79	C	0.884311	0.326093	-0.000101
C80	C	1.384311	0.826093	0.499899
N81	N	0.871325	0.551815	0.042836
N82	N	1.371325	1.051815	0.542836
N83	N	0.872341	0.620994	0.042861
N84	N	1.372341	1.120994	0.542861
C85	C	0.825523	0.663257	0.000012
C86	C	1.325523	1.163257	0.500012
N87	N	0.777641	0.633730	-0.042852
N88	N	1.277641	1.133730	0.457148
N89	N	0.776624	0.564545	-0.042874
N90	N	1.276624	1.064545	0.457126
C91	C	0.823456	0.522811	-0.000034
C92	C	1.323456	1.022811	0.499966
C93	C	0.763590	0.787146	0.000041
C94	C	1.263590	1.287146	0.500041
C95	C	0.764664	0.859970	0.000054
C96	C	1.264664	1.359970	0.500054
C97	C	0.891931	0.842932	0.000067
C98	C	1.391931	1.342932	0.500067
C99	C	0.890855	0.770108	0.000047
C100	C	1.390855	1.270108	0.500047
C101	C	0.826683	0.742220	0.000038
C102	C	1.326683	1.242220	0.500038
C103	C	0.872088	0.045437	0.218782
C104	C	1.372088	0.545437	0.718782
C105	C	0.872092	0.045434	0.298029
C106	C	1.372092	0.545434	0.798029
C107	C	0.824476	0.093031	0.337640
C108	C	1.324476	0.593031	0.837640
C109	C	0.776841	0.140622	0.297998
C110	C	1.276841	0.640622	0.797998
C111	C	0.776834	0.140619	0.218751
C112	C	1.276834	0.640619	0.718751
N113	N	0.815399	0.154838	0.462030
N114	N	1.315399	0.654838	0.962030
N115	N	0.815410	0.154839	0.537311
N116	N	1.315410	0.654839	1.037311
C117	C	0.824493	0.093041	0.576404
C118	C	1.324493	0.593041	1.076404
N119	N	0.833579	0.031240	0.537374
N120	N	1.333579	0.531240	1.037374
N121	N	0.833571	0.031241	0.462086
N122	N	1.333571	0.531241	0.962086
C123	C	0.824478	0.093039	0.423570
C124	C	1.324478	0.593039	0.923570
C125	C	0.872126	0.045446	0.701967
C126	C	1.372126	0.545446	1.201967
C127	C	0.872124	0.045441	0.781216
C128	C	1.372124	0.545441	1.281216
C129	C	0.776877	0.140636	0.781183
C130	C	1.276877	0.640636	1.281183
C131	C	0.776875	0.140634	0.701935
C132	C	1.276875	0.640634	1.201935
C133	C	0.824503	0.093039	0.662332
C134	C	1.324503	0.593039	1.162332
N135	N	0.824507	0.093038	0.820822
N136	N	1.324507	0.593038	1.320822
H137	H	1.051878	-0.026658	0.000031
H138	H	1.551878	0.473342	0.500031
O139	O	0.918410	-0.000858	0.663608
O140	O	1.418410	0.499142	1.163608
C141	C	0.960455	-0.042856	0.715588
C142	C	1.460455	0.457144	1.215588
H143	H	0.931837	-0.043573	0.772084
H144	H	1.431837	0.456427	1.272084
H145	H	0.971277	-0.098642	0.692719
H146	H	1.471277	0.401358	1.192719
H147	H	1.012250	-0.020314	0.723992
H148	H	1.512250	0.479686	1.223992
O149	O	0.730544	0.186919	0.180365
O150	O	1.230544	0.686919	0.680365
C151	C	0.688501	0.228916	0.232316
C152	C	1.188501	0.728916	0.732316
H153	H	0.717124	0.229635	0.288799
H154	H	1.217124	0.729635	0.788799
H155	H	0.677675	0.284702	0.209390
H156	H	1.177675	0.784702	0.709390
H157	H	0.636708	0.206372	0.240766
H158	H	1.136708	0.706372	0.740766
O159	O	0.918277	-0.000988	0.180461
O160	O	1.418277	0.499012	0.680461
C161	C	0.907033	-0.070003	0.200052
C162	C	1.407033	0.429997	0.700052
H163	H	0.851099	-0.070077	0.221779
H164	H	1.351099	0.429923	0.721779
H165	H	0.915195	-0.105197	0.148059
H166	H	1.415195	0.394803	0.648059
H167	H	0.945712	-0.090543	0.246158
H168	H	1.445712	0.409457	0.746158
O169	O	1.157494	0.216247	-0.000208
O170	O	1.657494	0.716247	0.499792
C171	C	1.199124	0.220671	-0.065408
C172	C	1.699124	0.720671	0.434592
H173	H	1.182015	0.184240	-0.110962
H174	H	1.682015	0.684240	0.389038
H175	H	1.192417	0.276962	-0.087321
H176	H	1.692417	0.776962	0.412679
H177	H	1.256603	0.204390	-0.050665
H178	H	1.756603	0.704390	0.449335
H179	H	0.738070	0.179375	0.330253
H180	H	1.238070	0.679375	0.830253
H181	H	0.944177	0.865644	0.000029
H182	H	1.444177	1.365644	0.500029
O183	O	1.601444	0.222827	0.000047
O184	O	2.101444	0.722827	0.500047
C185	C	1.578451	0.261285	0.065222
C186	C	2.078451	0.761285	0.565222
H187	H	1.563407	0.223760	0.110815
H188	H	2.063407	0.723760	0.610815
H189	H	1.622479	0.290849	0.087091
H190	H	2.122479	0.790849	0.587091
H191	H	1.530874	0.300342	0.050461
H192	H	2.030874	0.800342	0.550461
H193	H	0.910876	0.006681	0.330305
H194	H	1.410876	0.506681	0.830305
O195	O	1.190953	-0.034686	-0.000005
O196	O	1.690953	0.465314	0.499995
C197	C	1.150723	-0.091555	0.000034
C198	C	1.650723	0.408445	0.500034
H199	H	1.096314	-0.073664	-0.023798
H200	H	1.596314	0.426336	0.476202
H201	H	1.177723	-0.135739	-0.036509
H202	H	1.677723	0.364261	0.463491
H203	H	1.145599	-0.111249	0.060440
H204	H	1.645599	0.388751	0.560440
H205	H	0.910905	0.006686	0.813486
H206	H	1.410905	0.506686	1.313486
O207	O	0.730592	0.186775	0.819734
O208	O	1.230592	0.686775	1.319734
C209	C	0.687627	0.149489	0.865589
C210	C	1.187627	0.649489	1.365589
H211	H	0.715606	0.094786	0.877487
H212	H	1.215606	0.594786	1.377487
H213	H	0.676494	0.178661	0.921301
H214	H	1.176494	0.678661	1.421301
H215	H	0.636042	0.144871	0.835062
H216	H	1.136042	0.644871	1.335062
H217	H	0.942231	0.733530	0.000042
H218	H	1.442231	1.233530	0.500042
O219	O	1.457817	0.220627	-0.000054
O220	O	1.957817	0.720627	0.499946
C221	C	1.387561	0.205921	-0.000066
C222	C	1.887561	0.705921	0.499934
H223	H	1.384933	0.151089	0.023799
H224	H	1.884933	0.651089	0.523799
H225	H	1.354439	0.246152	0.036462
H226	H	1.854439	0.746152	0.536462
H227	H	1.366501	0.208630	-0.060468
H228	H	1.866501	0.708630	0.439532
H229	H	0.937629	0.421633	-0.000073
H230	H	1.437629	0.921633	0.499927
H231	H	0.738096	0.179387	0.669664
H232	H	1.238096	0.679387	1.169664
H233	H	1.020966	0.204237	-0.000052
H234	H	1.520966	0.704237	0.499948
H235	H	1.627999	-0.018166	0.000032
H236	H	2.127999	0.481834	0.500032
O237	O	1.491582	-0.030238	-0.000072
O238	O	1.991582	0.469762	0.499928
C239	C	1.514554	-0.068678	-0.065265
C240	C	2.014554	0.431322	0.434735
H241	H	1.565010	-0.049806	-0.087011
H242	H	2.065010	0.450194	0.412989
H243	H	1.524833	-0.126853	-0.050572
H244	H	2.024833	0.373147	0.449428
H245	H	1.472395	-0.060458	-0.110928
H246	H	1.972395	0.439542	0.389072
O247	O	0.694651	0.316155	-0.000147
O248	O	1.194651	0.816155	0.499853
C249	C	0.639195	0.371428	-0.000114
C250	C	1.139195	0.871428	0.499886
H251	H	0.658619	0.420858	-0.023929
H252	H	1.158619	0.920858	0.476071
H253	H	0.594385	0.356374	-0.036674
H254	H	1.094385	0.856374	0.463326
H255	H	0.619736	0.381748	0.060287
H256	H	1.119736	0.881748	0.560287
H257	H	0.706741	0.452536	-0.000070
H258	H	1.206741	0.952536	0.499930
H259	H	0.711337	0.764438	0.000038
H260	H	1.211337	1.264438	0.500038
O261	O	0.945664	0.282549	-0.000074
O262	O	1.445664	0.782549	0.499926
C263	C	1.002532	0.322782	-0.000076
C264	C	1.502532	0.822782	0.499924
H265	H	0.984641	0.377174	0.023772
H266	H	1.484641	0.877174	0.523772
H267	H	1.046719	0.295759	0.036473
H268	H	1.546719	0.795759	0.536473
H269	H	1.022220	0.327948	-0.060471
H270	H	1.522220	0.827948	0.439529
O271	O	0.703310	0.903513	0.000098
O272	O	1.203310	1.403513	0.500098
C273	C	0.646444	0.863278	0.000067
C274	C	1.146444	1.363278	0.500067
H275	H	0.664331	0.808854	0.023887
H276	H	1.164331	1.308854	0.523887
H277	H	0.602248	0.890251	0.036625
H278	H	1.102248	1.390251	0.536625
H279	H	0.626768	0.858193	-0.060334
H280	H	1.126768	1.358193	0.439666
