data_functionalizedCrystal
_audit_creation_method	'MofGen! by Chris Wilmer'
_symmetry_space_group_name_H-M	'P1'
_symmetry_Int_Tables_number	1
_symmetry_cell_setting	triclinic
loop_
_symmetry_equiv_pos_as_xyz
  x,y,z
_cell_length_a	12.759395
_cell_length_b	18.101397
_cell_length_c	12.759387
_cell_angle_alpha	90.037018
_cell_angle_beta	90.021426
_cell_angle_gamma	90.021154
loop_
_atom_site_label
_atom_site_type_symbol
_atom_site_fract_x
_atom_site_fract_y
_atom_site_fract_z
Zn1	Zn	1.606227	-0.294777	0.593985
Zn2	Zn	1.606100	-0.418637	0.418287
Zn3	Zn	1.430525	-0.294815	0.418319
Zn4	Zn	1.430499	-0.418583	0.593923
O5	O	1.518338	-0.356703	0.506129
O6	O	1.753231	-0.311214	0.570691
O7	O	1.582767	-0.402251	0.271270
O8	O	1.453896	-0.191177	0.441662
O9	O	1.753137	-0.402213	0.441606
O10	O	1.582983	-0.191149	0.570723
O11	O	1.453773	-0.311280	0.271294
O12	O	1.283500	-0.311227	0.441601
O13	O	1.453853	-0.402121	0.740953
O14	O	1.283482	-0.402158	0.570616
O15	O	1.582959	-0.311161	0.740998
O16	O	1.582742	-0.522263	0.441546
O17	O	1.453729	-0.522223	0.570585
C18	C	1.245370	-0.356691	0.506106
C19	C	1.128593	-0.356704	0.506122
C20	C	1.518248	-0.549114	0.506078
C21	C	1.518305	-0.631428	0.506091
C22	C	0.909189	-0.451561	0.640288
C23	C	0.964071	-0.498974	0.707346
C24	C	1.073792	-0.498965	0.707332
C25	C	1.128635	-0.451539	0.640251
C26	C	1.073753	-0.404126	0.573193
C27	C	0.964029	-0.404139	0.573216
C28	C	1.073712	-0.309291	0.439063
C29	C	0.963990	-0.309295	0.439081
C30	C	1.128555	-0.261865	0.371982
C31	C	1.073673	-0.214447	0.304928
C32	C	0.963945	-0.214458	0.304945
C33	C	0.909109	-0.261882	0.372022
C34	C	1.518439	-0.930519	0.506187
C35	C	1.599384	-0.899188	0.424782
C36	C	1.599665	-0.813569	0.424992
C37	C	1.518373	-0.782136	0.506138
C38	C	1.548394	-0.813134	0.616880
C39	C	1.549020	-0.898779	0.616437
C40	C	1.407258	-0.899031	0.477809
C41	C	1.407807	-0.813381	0.475337
C42	C	1.518334	-0.698277	0.506118
C43	C	1.518481	-1.014378	0.506215
C44	C	1.792371	-0.356715	0.506152
C45	C	1.909148	-0.356721	0.506162
C46	C	1.518417	-0.356630	0.780162
C47	C	1.518451	-0.356600	0.896939
C48	C	1.518456	-0.163541	0.506203
C49	C	1.518507	-0.081227	0.506234
C50	C	1.518319	-0.356722	0.233161
C51	C	1.518489	-0.356544	0.116385
C52	C	1.652898	-0.261890	0.897007
C53	C	1.720136	-0.214524	0.951901
C54	C	1.720162	-0.214497	1.061623
C55	C	1.652940	-0.261839	1.116452
C56	C	1.585701	-0.309205	1.061558
C57	C	1.585685	-0.309229	0.951834
C58	C	1.451251	-0.403910	1.061490
C59	C	1.451229	-0.403942	0.951769
C60	C	1.384028	-0.451253	1.116320
C61	C	1.316794	-0.498624	1.061426
C62	C	1.316772	-0.498649	0.951697
C63	C	1.383990	-0.451308	0.896874
H64	H	0.819848	-0.451565	0.640316
H65	H	1.682022	-0.793024	0.443768
H66	H	1.630289	-0.918696	0.640475
N67	N	0.908034	-0.547415	0.775853
N68	N	0.810069	-0.547419	0.775860
H69	H	0.770494	-0.581632	0.824241
N70	N	1.129711	-0.166009	0.236429
N71	N	1.190982	-0.118852	0.273515
H72	H	1.230565	-0.084641	0.225139
N73	N	1.129875	-0.547395	0.775814
N74	N	1.191071	-0.594543	0.738709
H75	H	1.230682	-0.628747	0.787073
H76	H	1.580828	-0.919838	0.342422
N77	N	1.240712	-0.451549	0.640235
N78	N	1.289700	-0.493892	0.700103
H79	H	1.368856	-0.493900	0.700090
N80	N	1.702099	-0.925824	0.448876
N81	N	1.773793	-0.881117	0.469869
H82	H	1.846319	-0.899825	0.487194
H83	H	1.384050	-0.451225	1.205661
H84	H	1.492646	-0.919501	0.679180
N85	N	1.240632	-0.261863	0.372009
N86	N	1.289626	-0.246451	0.454014
H87	H	1.368782	-0.246449	0.454043
N88	N	0.907905	-0.166026	0.236431
N89	N	0.956888	-0.123692	0.176546
H90	H	0.917314	-0.089486	0.128155
N91	N	1.248071	-0.547022	0.895627
N92	N	1.151133	-0.542089	0.907868
H93	H	1.102609	-0.576252	0.868271
H94	H	1.774906	-0.175922	1.106318
N95	N	0.797032	-0.261897	0.372062
N96	N	0.748083	-0.304242	0.431960
H97	H	0.668927	-0.304256	0.431991
H98	H	1.628753	-0.791624	0.641325
N99	N	1.576096	-0.787288	0.321980
N100	N	1.559326	-0.832200	0.249427
H101	H	1.542683	-0.813642	0.176669
N102	N	1.788797	-0.166157	0.895909
N103	N	1.781882	-0.097818	0.908196
H104	H	1.830372	-0.063656	0.868655
H105	H	1.383983	-0.451328	0.807533
H106	H	1.491240	-0.792771	0.679165
H107	H	1.344252	-0.791992	0.530287
H108	H	1.379948	-0.920698	0.398457
H109	H	1.652894	-0.261914	0.807665
H110	H	1.385170	-0.793130	0.393840
N111	N	1.652962	-0.261792	1.228530
N112	N	1.712992	-0.219491	1.277530
H113	H	1.713006	-0.219456	1.356686
N114	N	1.331608	-0.924452	0.552194
N115	N	1.359312	-0.965579	0.625815
H116	H	1.305893	-0.983536	0.678354
H117	H	1.262062	-0.537162	1.106076
