data_functionalizedCrystal
_audit_creation_method	'MofGen! by Chris Wilmer'
_symmetry_space_group_name_H-M	'P1'
_symmetry_Int_Tables_number	1
_symmetry_cell_setting	triclinic
loop_
_symmetry_equiv_pos_as_xyz
  x,y,z
_cell_length_a	16.974800
_cell_length_b	10.967829
_cell_length_c	16.053802
_cell_angle_alpha	80.477515
_cell_angle_beta	91.074188
_cell_angle_gamma	84.835183
loop_
_atom_site_label
_atom_site_type_symbol
_atom_site_fract_x
_atom_site_fract_y
_atom_site_fract_z
O1	O	1.051014	0.157359	-0.021026
O2	O	0.821785	0.176256	-0.039240
O3	O	0.940460	-0.012873	-0.004004
O4	O	0.932338	0.346488	-0.056263
O5	O	0.933928	-0.002506	0.132922
O6	O	0.815252	0.186623	0.097685
O7	O	1.044481	0.167726	0.115900
Zn8	Zn	0.928829	0.178820	0.128532
Zn9	Zn	0.937436	0.165161	-0.051873
O10	O	0.925805	0.356855	0.080663
C11	C	0.789144	0.180531	0.027367
C12	C	0.701618	0.177809	0.021842
C13	C	0.656942	0.182178	0.093887
C14	C	0.574703	0.179601	0.088701
C15	C	0.537141	0.172663	0.011468
C16	C	0.581824	0.168290	-0.060582
C17	C	0.664062	0.170858	-0.055394
C18	C	0.291568	0.164367	-0.012052
C19	C	0.209324	0.161803	-0.017235
C20	C	0.202209	0.173112	0.132049
C21	C	0.284448	0.175687	0.137229
C22	C	0.329124	0.171307	0.065180
N23	N	0.453080	0.170033	0.006164
N24	N	0.413185	0.173929	0.070486
C25	C	0.936109	-0.053683	0.071002
C26	C	0.932868	-0.190727	0.090497
C27	C	0.934808	-0.257190	0.028257
C28	C	0.931458	-0.398832	0.048404
C29	C	1.077122	0.163451	0.049290
C30	C	1.164648	0.166172	0.054810
C31	C	0.930156	0.397664	0.005655
C32	C	0.933398	0.534708	-0.013845
N33	N	0.922961	0.188142	0.251655
N34	N	0.943311	0.155830	-0.174994
C35	C	0.973477	0.107696	0.310339
C36	C	0.969379	0.114228	0.396529
C37	C	0.914769	0.201213	0.424032
C38	C	0.864248	0.281662	0.365341
C39	C	0.868342	0.275123	0.279153
C40	C	0.896884	0.229741	0.680128
C41	C	0.892795	0.236276	0.766322
C42	C	0.997926	0.068839	0.797505
C43	C	1.002019	0.062313	0.711313
C44	C	0.951495	0.142758	0.652630
N45	N	0.910581	0.207894	0.512131
N46	N	0.955679	0.136070	0.564533
H47	H	0.700436	0.167302	-0.114061
H48	H	0.315026	0.181331	0.200121
H49	H	1.039059	0.003343	0.845292
H50	H	0.938944	-0.209228	-0.039946
C51	C	0.781267	0.269951	0.852274
C52	C	0.832762	0.331888	0.796563
H53	H	0.744213	0.328977	0.870949
H54	H	0.753882	0.215909	0.824114
H55	H	0.810784	0.222977	0.899551
H56	H	0.803246	0.378855	0.749284
H57	H	0.860149	0.385951	0.824723
C58	C	0.923622	-0.591343	0.142620
C59	C	0.925861	-0.463557	0.140483
H60	H	0.920169	-0.631300	0.199464
H61	H	0.878776	-0.605432	0.110495
H62	H	0.970410	-0.623963	0.119359
H63	H	0.879069	-0.430935	0.163737
H64	H	0.970711	-0.449460	0.172619
H65	H	0.855747	0.295245	0.632354
C66	C	0.683756	0.086574	0.238489
C67	C	0.698228	0.189799	0.178785
H68	H	0.709248	0.091274	0.290901
H69	H	0.628390	0.085679	0.245706
H70	H	0.703829	0.012761	0.219354
H71	H	0.678150	0.263612	0.197917
H72	H	0.753605	0.190706	0.171568
C73	C	0.940136	-0.489109	-0.159622
C74	C	0.938985	-0.400570	-0.105926
H75	H	0.943580	-0.449149	-0.216467
H76	H	0.984617	-0.548363	-0.144986
H77	H	0.892982	-0.529848	-0.153837
H78	H	0.986141	-0.359837	-0.111706
H79	H	0.894499	-0.341294	-0.120567
C80	C	0.858310	-0.207338	0.216845
C81	C	0.927275	-0.255453	0.182572
H82	H	0.854855	-0.247301	0.273688
H83	H	0.859836	-0.120656	0.215382
H84	H	0.813465	-0.221448	0.184713
H85	H	0.972120	-0.241335	0.214701
H86	H	0.925756	-0.342156	0.184041
H87	H	0.819779	0.352483	0.387739
H88	H	1.017949	0.036869	0.287953
C89	C	1.073727	-0.051896	0.418690
C90	C	1.024920	0.025818	0.461033
H91	H	1.108022	-0.106470	0.458514
H92	H	1.041978	-0.099003	0.389249
H93	H	1.104291	-0.002917	0.379601
H94	H	0.994351	-0.023161	0.500118
H95	H	1.056673	0.072929	0.490489
C96	C	0.072986	0.174183	0.190386
C97	C	0.153101	0.177908	0.211244
H98	H	0.042672	0.177133	0.239283
H99	H	0.055845	0.243360	0.148182
H100	H	0.066109	0.099516	0.169560
H101	H	0.159979	0.252580	0.232064
H102	H	0.170248	0.108725	0.253462
H103	H	0.827206	0.340630	0.231372
H104	H	0.178744	0.156157	-0.080131
C105	C	0.485673	0.077225	0.185250
C106	C	0.525603	0.184390	0.167902
H107	H	0.455367	0.080176	0.234153
H108	H	0.451530	0.072736	0.138520
H109	H	0.523045	0.006087	0.194855
H110	H	0.488230	0.255529	0.158291
H111	H	0.559748	0.188892	0.214642
C112	C	0.315384	0.261543	-0.153463
C113	C	0.340666	0.159562	-0.091249
H114	H	0.345701	0.258577	-0.202357
H115	H	0.261036	0.259016	-0.167595
H116	H	0.322282	0.336199	-0.132632
H117	H	0.333763	0.084905	-0.112078
H118	H	0.395027	0.162077	-0.077117
C119	C	0.458919	0.159344	-0.134823
C120	C	0.540538	0.160667	-0.145479
H121	H	0.433433	0.154648	-0.187239
H122	H	0.449110	0.089328	-0.094316
H123	H	0.438860	0.233172	-0.115699
H124	H	0.560598	0.086834	-0.164597
H125	H	0.550352	0.230689	-0.186000
H126	H	1.046486	-0.008517	0.688923
