data_functionalizedCrystal
_audit_creation_method	'MofGen! by Chris Wilmer'
_symmetry_space_group_name_H-M	'P1'
_symmetry_Int_Tables_number	1
_symmetry_cell_setting	triclinic
loop_
_symmetry_equiv_pos_as_xyz
  x,y,z
_cell_length_a	17.640112
_cell_length_b	21.295417
_cell_length_c	17.640968
_cell_angle_alpha	101.234808
_cell_angle_beta	87.860920
_cell_angle_gamma	101.256239
loop_
_atom_site_label
_atom_site_type_symbol
_atom_site_fract_x
_atom_site_fract_y
_atom_site_fract_z
Zn1	Zn	1.247775	-0.018088	0.195079
Zn2	Zn	1.747775	0.481912	0.695079
Zn3	Zn	1.221981	-0.147966	0.068087
Zn4	Zn	1.721981	0.352034	0.568087
Zn5	Zn	1.095099	-0.059037	0.093722
Zn6	Zn	1.595099	0.440963	0.593722
Zn7	Zn	1.120723	-0.139680	0.220669
Zn8	Zn	1.620723	0.360320	0.720669
O9	O	1.171395	-0.091193	0.144389
O10	O	1.671395	0.408807	0.644389
O11	O	1.350625	-0.021647	0.156795
O12	O	1.850625	0.478353	0.656795
O13	O	1.183631	-0.156775	-0.034787
O14	O	1.683631	0.343225	0.465213
O15	O	1.115423	0.034499	0.107185
O16	O	1.615423	0.534499	0.607185
O17	O	1.331674	-0.117068	0.063494
O18	O	1.831674	0.382932	0.563494
O19	O	1.227593	0.064584	0.181652
O20	O	1.727593	0.564584	0.681652
O21	O	1.090412	-0.091439	-0.015953
O22	O	1.590412	0.408561	0.484047
O23	O	0.992227	-0.083404	0.132000
O24	O	1.492227	0.416596	0.632000
O25	O	1.159096	-0.102945	0.323549
O26	O	1.659096	0.397055	0.823549
O27	O	1.011052	-0.142652	0.225268
O28	O	1.511052	0.357348	0.725268
O29	O	1.252440	-0.013612	0.304748
O30	O	1.752440	0.486388	0.804748
O31	O	1.208478	-0.234971	0.088309
O32	O	1.708478	0.265029	0.588309
O33	O	1.134084	-0.228883	0.200410
O34	O	1.634084	0.271117	0.700410
C35	C	0.974084	-0.116573	0.184193
C36	C	1.474084	0.383427	0.684193
C37	C	0.889678	-0.127442	0.201239
C38	C	1.389678	0.372558	0.701239
C39	C	0.563037	-0.008607	0.014897
C40	C	1.063037	0.491393	0.514897
C41	C	0.483727	-0.018831	0.030925
C42	C	0.983727	0.481169	0.530925
C43	C	0.503351	-0.080669	0.127878
C44	C	1.003351	0.419331	0.627878
C45	C	0.582665	-0.070447	0.111861
C46	C	1.082665	0.429553	0.611861
C47	C	0.612502	-0.034416	0.055369
C48	C	1.112502	0.465584	0.555369
C49	C	0.632129	-0.096257	0.152332
C50	C	1.132129	0.403743	0.652332
C51	C	0.711436	-0.086038	0.136313
C52	C	1.211436	0.413962	0.636313
C53	C	0.741279	-0.050011	0.079823
C54	C	1.241279	0.449989	0.579823
C55	C	0.691809	-0.024198	0.039350
C56	C	1.191809	0.475802	0.539350
C57	C	0.602290	-0.132291	0.208820
C58	C	1.102290	0.367709	0.708820
C59	C	0.651755	-0.158101	0.249291
C60	C	1.151755	0.341899	0.749291
C61	C	0.731064	-0.147879	0.233277
C62	C	1.231064	0.352121	0.733277
C63	C	0.760907	-0.111851	0.176786
C64	C	1.260907	0.388149	0.676786
C65	C	0.780534	-0.173691	0.273749
C66	C	1.280534	0.326309	0.773749
C67	C	0.859841	-0.163473	0.257730
C68	C	1.359841	0.336527	0.757730
C69	C	0.840214	-0.101633	0.160767
C70	C	1.340214	0.398367	0.660767
C71	C	1.171287	-0.254765	0.144367
C72	C	1.671287	0.245235	0.644367
C73	C	1.171315	-0.324729	0.144369
C74	C	1.671315	0.175271	0.644369
C75	C	1.210105	-0.360729	0.086039
C76	C	1.710105	0.139271	0.586039
C77	C	1.210144	-0.426464	0.086049
C78	C	1.710144	0.073536	0.586049
C79	C	1.171378	-0.456199	0.144384
C80	C	1.671378	0.043801	0.644384
C81	C	1.132586	-0.420189	0.202724
C82	C	1.632586	0.079811	0.702724
C83	C	1.132555	-0.354454	0.202717
C84	C	1.632555	0.145546	0.702717
N85	N	1.106115	-0.566893	0.163575
N86	N	1.606115	-0.066893	0.663575
N87	N	1.106146	-0.629339	0.163577
N88	N	1.606146	-0.129339	0.663577
C89	C	1.171472	-0.654254	0.144410
C90	C	1.671472	-0.154254	0.644410
N91	N	1.236764	-0.614366	0.125225
N92	N	1.736764	-0.114366	0.625225
N93	N	1.236731	-0.551916	0.125220
N94	N	1.736731	-0.051916	0.625220
C95	C	1.171408	-0.527477	0.144398
C96	C	1.671408	-0.027477	0.644398
C97	C	1.210308	-0.761531	0.086087
C98	C	1.710308	-0.261531	0.586087
C99	C	1.210349	-0.827266	0.086102
C100	C	1.710349	-0.327266	0.586102
C101	C	1.132784	-0.820991	0.202775
C102	C	1.632784	-0.320991	0.702775
C103	C	1.132750	-0.755256	0.202763
C104	C	1.632750	-0.255256	0.702763
C105	C	1.171510	-0.725531	0.144415
C106	C	1.671510	-0.225531	0.644415
C107	C	1.369475	-0.065714	0.104431
C108	C	1.869475	0.434286	0.604431
C109	C	1.453885	-0.054856	0.087403
C110	C	1.953885	0.445144	0.587403
C111	C	1.211503	-0.052786	0.342475
C112	C	1.711503	0.447214	0.842475
C113	C	1.228595	-0.036419	0.426887
C114	C	1.728595	0.463581	0.926887
C115	C	1.171527	0.073024	0.144424
C116	C	1.671527	0.573024	0.644424
C117	C	1.171584	0.143004	0.144438
C118	C	1.671584	0.643004	0.644438
C119	C	1.131486	-0.129399	-0.052935
C120	C	1.631486	0.370601	0.447065
C121	C	1.114541	-0.145569	-0.137376
C122	C	1.614541	0.354431	0.362624
C123	C	1.041841	-0.215148	0.753447
C124	C	1.541841	0.284852	1.253447
C125	C	1.057917	-0.199759	0.832762
C126	C	1.557917	0.300241	1.332762
C127	C	1.155108	-0.106745	0.813176
C128	C	1.655108	0.393255	1.313176
C129	C	1.139037	-0.122124	0.733858
C130	C	1.639037	0.377876	1.233858
C131	C	1.082403	-0.176327	0.704000
C132	C	1.582403	0.323673	1.204000
C133	C	1.179600	-0.083303	0.684411
C134	C	1.679600	0.416697	1.184411
C135	C	1.163533	-0.098683	0.605099
C136	C	1.663533	0.401317	1.105099
C137	C	1.106903	-0.152885	0.575235
C138	C	1.606903	0.347115	1.075235
C139	C	1.066336	-0.191707	0.624689
C140	C	1.566336	0.308293	1.124689
C141	C	1.236237	-0.029103	0.714269
C142	C	1.736237	0.470897	1.214269
C143	C	1.276800	0.009719	0.664822
C144	C	1.776800	0.509719	1.164822
C145	C	1.260729	-0.005659	0.585510
C146	C	1.760729	0.494341	1.085510
C147	C	1.204100	-0.059860	0.555646
C148	C	1.704100	0.440140	1.055646
C149	C	1.301296	0.033164	0.536056
C150	C	1.801296	0.533164	1.036056
C151	C	1.285229	0.017784	0.456745
C152	C	1.785229	0.517784	0.956745
C153	C	1.188033	-0.075241	0.476334
C154	C	1.688033	0.424759	0.976334
H155	H	0.716105	0.005154	-0.006639
H156	H	1.216105	0.505154	0.493361
H157	H	1.347413	0.077292	0.560378
H158	H	1.847413	0.577292	1.060378
H159	H	0.537713	-0.140610	0.221860
H160	H	1.037713	0.359390	0.721860
O161	O	0.818319	-0.039968	0.064264
O162	O	1.318319	0.460032	0.564264
C163	C	0.848822	0.027562	0.078561
C164	C	1.348822	0.527562	0.578561
H165	H	0.800518	0.055450	0.074896
H166	H	1.300518	0.555450	0.574896
H167	H	0.894943	0.038993	0.033615
H168	H	1.394943	0.538993	0.533615
H169	H	0.875670	0.042849	0.138732
H170	H	1.375670	0.542849	0.638732
O171	O	0.591895	0.026383	-0.040030
O172	O	1.091895	0.526383	0.459970
C173	C	0.531235	0.046989	-0.072305
C174	C	1.031235	0.546989	0.427695
H175	H	0.474145	0.013409	-0.063567
H176	H	0.974145	0.513409	0.436433
H177	H	0.542025	0.045126	-0.136753
H178	H	1.042025	0.545126	0.363247
H179	H	0.528485	0.099095	-0.042696
H180	H	1.028485	0.599095	0.457304
H181	H	0.864510	-0.072281	0.114778
H182	H	1.364510	0.427719	0.614778
H183	H	0.756228	-0.203033	0.319739
H184	H	1.256228	0.296967	0.819739
H185	H	0.900117	-0.184489	0.290687
H186	H	1.400117	0.315511	0.790687
H187	H	1.141897	-0.119366	0.452027
H188	H	1.641897	0.380634	0.952027
O189	O	1.210017	-0.054034	0.842240
O190	O	1.710017	0.445966	1.342240
C191	C	1.176109	-0.010046	0.896867
C192	C	1.676109	0.489954	1.396867
H193	H	1.111459	-0.018487	0.885039
H194	H	1.611459	0.481513	1.385039
H195	H	1.203792	0.042115	0.892235
H196	H	1.703792	0.542115	1.392235
H197	H	1.185657	-0.018193	0.957499
H198	H	1.685657	0.481807	1.457499
O199	O	1.094810	-0.319437	0.259281
O200	O	1.594810	0.180563	0.759281
C201	C	1.037000	-0.296182	0.225888
C202	C	1.537000	0.203818	0.725888
H203	H	1.052175	-0.294041	0.162942
H204	H	1.552175	0.205959	0.662942
H205	H	1.033036	-0.245269	0.258864
H206	H	1.533036	0.254731	0.758864
H207	H	0.979042	-0.330430	0.228855
H208	H	1.479042	0.169570	0.728855
O209	O	1.248175	-0.862116	0.029449
O210	O	1.748175	-0.362116	0.529449
C211	C	1.327206	-0.832985	0.030886
C212	C	1.827206	-0.332985	0.530886
H213	H	1.334597	-0.779395	0.059796
H214	H	1.834597	-0.279395	0.559796
H215	H	1.350226	-0.836923	-0.030766
H216	H	1.850226	-0.336923	0.469234
H217	H	1.360702	-0.859079	0.064789
H218	H	1.860702	-0.359079	0.564789
O219	O	1.247903	-0.732743	0.029318
O220	O	1.747903	-0.232743	0.529318
C221	C	1.216035	-0.765646	-0.043048
C222	C	1.716035	-0.265646	0.456952
H223	H	1.186548	-0.817465	-0.038751
H224	H	1.686548	-0.317465	0.461249
H225	H	1.263986	-0.767401	-0.088119
H226	H	1.763986	-0.267401	0.411881
H227	H	1.171803	-0.738681	-0.060790
H228	H	1.671803	-0.238681	0.439210
O229	O	0.622646	-0.193059	0.304165
O230	O	1.122646	0.306941	0.804165
C231	C	0.542037	-0.196560	0.309612
C232	C	1.042037	0.303440	0.809612
H233	H	0.526201	-0.154147	0.287028
H234	H	1.026201	0.345853	0.787028
H235	H	0.523424	-0.193753	0.372573
H236	H	1.023424	0.306247	0.872573
H237	H	0.511305	-0.244609	0.273640
H238	H	1.011305	0.255391	0.773640
O239	O	1.247831	-0.331946	0.029329
O240	O	1.747831	0.168054	0.529329
C241	C	1.282062	-0.377826	-0.022162
C242	C	1.782062	0.122174	0.477838
H243	H	1.290982	-0.418305	0.008426
H244	H	1.790982	0.081695	0.508426
H245	H	1.340266	-0.352655	-0.042286
H246	H	1.840266	0.147345	0.457714
H247	H	1.242621	-0.399618	-0.074264
H248	H	1.742621	0.100382	0.425736
H249	H	1.318258	0.049397	0.416484
H250	H	1.818258	0.549397	0.916484
O251	O	1.247908	-0.461452	0.029468
O252	O	1.747908	0.038548	0.529468
C253	C	1.305690	-0.484755	0.062843
C254	C	1.805690	0.015245	0.562843
H255	H	1.322469	-0.452719	0.121712
H256	H	1.822469	0.047281	0.621712
H257	H	1.358586	-0.483284	0.023605
H258	H	1.858586	0.016716	0.523605
H259	H	1.282739	-0.537102	0.070199
H260	H	1.782739	-0.037102	0.570199
O261	O	1.331764	0.062363	0.693961
O262	O	1.831764	0.562363	1.193961
C263	C	1.337264	0.067604	0.774564
C264	C	1.837264	0.567604	1.274564
H265	H	1.280838	0.041544	0.797222
H266	H	1.780838	0.541544	1.297222
H267	H	1.348557	0.121271	0.803677
H268	H	1.848557	0.621271	1.303677
H269	H	1.386844	0.044236	0.787970
H270	H	1.886844	0.544236	1.287970
H271	H	0.995706	-0.259273	0.729140
H272	H	1.495706	0.240727	1.229140
H273	H	1.101224	-0.845199	0.250275
H274	H	1.601224	-0.345199	0.750275
O275	O	1.091358	-0.167921	0.498179
O276	O	1.591358	0.332079	0.998179
C277	C	1.105425	-0.230898	0.467739
C278	C	1.605425	0.269102	0.967739
H279	H	1.147774	-0.243803	0.506755
H280	H	1.647774	0.256197	1.006755
H281	H	1.131089	-0.231999	0.407328
H282	H	1.631089	0.268001	0.907328
H283	H	1.048788	-0.267818	0.464518
H284	H	1.548788	0.232182	0.964518
O285	O	1.095186	-0.720227	0.259480
O286	O	1.595186	-0.220227	0.759480
C287	C	1.148298	-0.667065	0.299836
C288	C	1.648298	-0.167065	0.799836
H289	H	1.209076	-0.678212	0.292515
H290	H	1.709076	-0.178212	0.792515
H291	H	1.132611	-0.658532	0.363809
H292	H	1.632611	-0.158532	0.863809
H293	H	1.146154	-0.621467	0.275820
H294	H	1.646154	-0.121467	0.775820
O295	O	1.251851	-0.014274	0.791311
O296	O	1.751851	0.485726	1.291311
C297	C	1.276688	-0.066961	0.813861
C298	C	1.776688	0.433039	1.313861
H299	H	1.254421	-0.113760	0.770772
H300	H	1.754421	0.386240	1.270772
H301	H	1.253177	-0.072263	0.873835
H302	H	1.753177	0.427737	1.373835
H303	H	1.342549	-0.057466	0.815213
H304	H	1.842549	0.442534	1.315213
O305	O	0.435621	0.006142	-0.008451
O306	O	0.935621	0.506142	0.491549
C307	C	0.379752	-0.045065	-0.048292
C308	C	0.879752	0.454935	0.451708
H309	H	0.402656	-0.092494	-0.057935
H310	H	0.902656	0.407506	0.442065
H311	H	0.367011	-0.033652	-0.106495
H312	H	0.867011	0.466348	0.393505
H313	H	0.324413	-0.050457	-0.012665
H314	H	0.824413	0.449543	0.487335
H315	H	0.479046	-0.110007	0.173871
H316	H	0.979046	0.389993	0.673871
H317	H	1.024882	-0.231377	0.873021
H318	H	1.524882	0.268623	1.373021
O319	O	1.011420	-0.244439	0.595684
O320	O	1.511420	0.255561	1.095684
C321	C	1.031895	-0.301290	0.611718
C322	C	1.531895	0.198710	1.111718
H323	H	1.096974	-0.292424	0.621297
H324	H	1.596974	0.207576	1.121297
H325	H	1.014788	-0.343346	0.560864
H326	H	1.514788	0.156654	1.060864
H327	H	1.000479	-0.314071	0.665956
H328	H	1.500479	0.185929	1.165956
H329	H	1.101025	-0.444402	0.250222
H330	H	1.601025	0.055598	0.750222
