data_functionalizedCrystal
_audit_creation_method	'MofGen! by Chris Wilmer'
_symmetry_space_group_name_H-M	'P1'
_symmetry_Int_Tables_number	1
_symmetry_cell_setting	triclinic
loop_
_symmetry_equiv_pos_as_xyz
  x,y,z
_cell_length_a	15.712078
_cell_length_b	10.654541
_cell_length_c	9.730217
_cell_angle_alpha	90.003041
_cell_angle_beta	89.989454
_cell_angle_gamma	77.967461
loop_
_atom_site_label
_atom_site_type_symbol
_atom_site_fract_x
_atom_site_fract_y
_atom_site_fract_z
O1	O	1.151031	-0.690557	-0.114617
O2	O	0.898801	-0.594693	-0.114548
O3	O	1.030717	-0.462476	-0.114576
O4	O	1.019116	-0.822774	-0.114589
O5	O	1.030713	-0.462473	0.114004
O6	O	0.898797	-0.594690	0.114032
O7	O	1.151027	-0.690553	0.113963
Zn8	Zn	1.024912	-0.642621	0.150290
Zn9	Zn	1.024917	-0.642626	-0.150874
O10	O	1.019112	-0.822770	0.113991
C11	C	0.866503	-0.579031	-0.000249
C12	C	0.770268	-0.532351	-0.000222
C13	C	0.405545	-0.928671	-0.000332
C14	C	0.315120	-0.884780	-0.000364
C15	C	0.334419	-0.664851	-0.000359
C16	C	0.424847	-0.708724	-0.000334
C17	C	0.460403	-0.840635	-0.000318
C18	C	0.479705	-0.620688	-0.000320
C19	C	0.570125	-0.664558	-0.000287
C20	C	0.605688	-0.796464	-0.000268
C21	C	0.550823	-0.884505	-0.000285
C22	C	0.444148	-0.488777	-0.000325
C23	C	0.499006	-0.400741	-0.000312
C24	C	0.589428	-0.444611	-0.000288
C25	C	0.624990	-0.576517	-0.000269
C26	C	0.644292	-0.356569	-0.000271
C27	C	0.734713	-0.400440	-0.000238
C28	C	0.715410	-0.620387	-0.000236
C29	C	1.029863	-0.415296	-0.000286
C30	C	1.027316	-0.274715	-0.000288
C31	C	1.183326	-0.706216	-0.000339
C32	C	1.279561	-0.752895	-0.000374
C33	C	1.019965	-0.869950	-0.000302
C34	C	1.022512	-1.010531	-0.000309
N35	N	1.024914	-0.642620	0.355826
C36	C	1.185057	-0.317206	-0.000314
C37	C	1.262726	-0.272407	-0.000323
C38	C	1.260328	-0.140317	-0.000327
C39	C	1.180251	-0.053022	-0.000325
C40	C	1.102581	-0.097821	-0.000315
C41	C	1.104988	-0.229916	-0.000307
C42	C	0.944842	-0.055331	-0.000299
C43	C	0.947239	-0.187420	-0.000286
C44	C	0.864765	0.031964	-0.000297
C45	C	0.787093	-0.012835	-0.000278
C46	C	0.789495	-0.144933	-0.000272
C47	C	0.869569	-0.232219	-0.000276
N48	N	1.024921	-0.642620	-0.356411
C49	C	1.141773	-0.525613	0.355792
C50	C	1.200209	-0.467116	0.427715
C51	C	1.200217	-0.467119	0.571595
C52	C	1.141783	-0.525623	0.643555
C53	C	1.083348	-0.584120	0.571632
C54	C	1.083347	-0.584113	0.427749
C55	C	0.966486	-0.701117	0.571666
C56	C	0.966480	-0.701123	0.427786
C57	C	0.908051	-0.759620	0.643626
C58	C	0.849619	-0.818127	0.571703
C59	C	0.849613	-0.818122	0.427815
C60	C	0.908044	-0.759620	0.355863
H61	H	0.470044	-0.293338	-0.000308
H62	H	0.370522	-0.453062	-0.000335
H63	H	0.744361	-0.727802	-0.000222
H64	H	0.779379	-0.328752	-0.000230
H65	H	1.323574	-0.103843	-0.000346
H66	H	0.908057	-0.759614	0.760781
H67	H	1.327924	-0.343496	-0.000313
H68	H	0.721901	0.058250	-0.000285
H69	H	0.862818	0.139517	-0.000309
H70	H	0.802025	-0.865751	0.369263
H71	H	1.178305	0.054530	-0.000345
H72	H	0.726246	-0.181398	-0.000270
H73	H	1.247784	-0.419480	0.369113
H74	H	1.247797	-0.419480	0.630155
H75	H	1.187017	-0.424762	-0.000292
H76	H	0.908048	-0.759617	0.238709
H77	H	0.615329	-0.249166	-0.000265
H78	H	0.434496	-1.036087	-0.000317
H79	H	0.871532	-0.339776	-0.000263
H80	H	0.305457	-0.557447	-0.000356
H81	H	1.141779	-0.525618	0.238638
H82	H	0.802042	-0.865749	0.630302
H83	H	1.141786	-0.525608	0.760709
H84	H	0.679314	-0.832181	-0.000235
H85	H	0.579773	-0.991921	-0.000271
H86	H	0.270457	-0.956480	-0.000369
