data_functionalizedCrystal
_audit_creation_method	'MofGen! by Chris Wilmer'
_symmetry_space_group_name_H-M	'P1'
_symmetry_Int_Tables_number	1
_symmetry_cell_setting	triclinic
loop_
_symmetry_equiv_pos_as_xyz
  x,y,z
_cell_length_a	18.050591
_cell_length_b	18.050590
_cell_length_c	18.050582
_cell_angle_alpha	90.023337
_cell_angle_beta	90.019760
_cell_angle_gamma	90.015000
loop_
_atom_site_label
_atom_site_type_symbol
_atom_site_fract_x
_atom_site_fract_y
_atom_site_fract_z
Zn1	Zn	1.135342	-0.295777	0.420004
Zn2	Zn	1.135274	-0.419960	0.295813
Zn3	Zn	1.011162	-0.295781	0.295818
Zn4	Zn	1.011131	-0.419922	0.419951
O5	O	1.073227	-0.357860	0.357897
O6	O	1.239258	-0.312265	0.403550
O7	O	1.118795	-0.403505	0.191889
O8	O	1.027676	-0.191856	0.312316
O9	O	1.239208	-0.403501	0.312307
O10	O	1.118911	-0.191853	0.403556
O11	O	1.027610	-0.312271	0.191893
O12	O	0.907233	-0.312234	0.312264
O13	O	1.027623	-0.403436	0.523883
O14	O	0.907210	-0.403440	0.403464
O15	O	1.118881	-0.312227	0.523922
O16	O	1.118765	-0.523880	0.312255
O17	O	1.027557	-0.523852	0.403459
C18	C	0.880275	-0.357834	0.357859
C19	C	0.797729	-0.357841	0.357861
C20	C	1.073170	-0.550812	0.357867
C21	C	1.073214	-0.633358	0.357879
C22	C	0.548895	-0.308191	0.308384
C23	C	0.598323	-0.290110	0.376160
C24	C	0.500609	-0.357879	0.357922
C25	C	0.598262	-0.375906	0.290119
C26	C	0.646594	-0.357858	0.357888
C27	C	0.548951	-0.339762	0.425734
C28	C	0.548884	-0.425589	0.339648
C29	C	0.598291	-0.407534	0.407471
C30	C	0.416511	-0.357888	0.357940
C31	C	0.730690	-0.357848	0.357878
C32	C	1.122916	-0.832797	0.308352
C33	C	1.141051	-0.882137	0.376133
C34	C	1.073256	-0.784488	0.357909
C35	C	1.055196	-0.882230	0.290158
C36	C	1.073298	-0.930473	0.357931
C37	C	1.091426	-0.832741	0.425726
C38	C	1.005539	-0.832830	0.339704
C39	C	1.023649	-0.882147	0.407533
C40	C	1.073233	-0.700390	0.357895
C41	C	1.073320	-1.014570	0.357953
C42	C	1.266933	-0.357887	0.357934
C43	C	1.349479	-0.357898	0.357950
C44	C	1.073256	-0.357827	0.551602
C45	C	1.073269	-0.357813	0.634148
C46	C	1.073305	-0.164154	0.357943
C47	C	1.073338	-0.081609	0.357962
C48	C	1.073241	-0.357839	0.164944
C49	C	1.073372	-0.357644	0.082399
C50	C	1.023681	-0.407345	0.833577
C51	C	1.091439	-0.425502	0.882974
C52	C	1.073305	-0.357756	0.785278
C53	C	1.005584	-0.339578	0.882963
C54	C	1.073335	-0.357703	0.931264
C55	C	1.141099	-0.375950	0.833588
C56	C	1.055199	-0.289994	0.833573
C57	C	1.123004	-0.308126	0.882948
C58	C	1.073287	-0.357789	0.701180
C59	C	1.073360	-0.357670	1.015360
H60	H	0.620026	-0.232837	0.391616
N61	N	1.034936	-0.911011	0.214247
H62	H	0.984137	-0.892300	0.200104
H63	H	1.034671	-0.966957	0.214977
H64	H	1.039846	-0.232728	0.811857
N65	N	0.968033	-0.910661	0.463113
H66	H	0.981782	-0.892555	0.514253
H67	H	0.968057	-0.966609	0.462459
N68	N	1.216924	-0.910840	0.396550
H69	H	1.230970	-0.892064	0.447367
H70	H	1.254336	-0.892889	0.359033
H71	H	0.619924	-0.391162	0.232794
N72	N	0.968144	-0.462958	0.804855
H73	H	0.981934	-0.514113	0.822825
H74	H	0.968217	-0.462186	0.748909
N75	N	1.111776	-0.804070	0.501654
H76	H	1.162773	-0.822443	0.515523
H77	H	1.074489	-0.822447	0.539089
N78	N	0.520089	-0.501424	0.319154
H79	H	0.464142	-0.500979	0.319798
H80	H	0.538891	-0.539057	0.356030
N81	N	0.626844	-0.463176	0.463008
H82	H	0.682794	-0.463171	0.462391
H83	H	0.608010	-0.514152	0.449647
N84	N	1.178561	-0.804085	0.252901
H85	H	1.177817	-0.748137	0.252952
H86	H	1.165399	-0.822911	0.201869
H87	H	1.198399	-0.391368	0.811990
H88	H	1.106771	-0.482785	0.904674
N89	N	0.929683	-0.804106	0.319272
H90	H	0.895364	-0.847225	0.309516
H91	H	0.933509	-0.772531	0.273254
N92	N	0.520163	-0.252510	0.252976
H93	H	0.538150	-0.201368	0.266868
H94	H	0.464217	-0.253307	0.253067
N95	N	0.520387	-0.319467	0.501693
H96	H	0.464435	-0.319579	0.501232
H97	H	0.538862	-0.268492	0.515551
N98	N	1.178669	-0.252555	0.911501
H99	H	1.229790	-0.266364	0.893447
H100	H	1.178000	-0.252568	0.967448
H101	H	0.948301	-0.324225	0.904653
