data_functionalizedCrystal
_audit_creation_method	'MofGen! by Chris Wilmer'
_symmetry_space_group_name_H-M	'P1'
_symmetry_Int_Tables_number	1
_symmetry_cell_setting	triclinic
loop_
_symmetry_equiv_pos_as_xyz
  x,y,z
_cell_length_a	17.699083
_cell_length_b	15.944551
_cell_length_c	16.776229
_cell_angle_alpha	89.992397
_cell_angle_beta	89.998886
_cell_angle_gamma	83.390877
loop_
_atom_site_label
_atom_site_type_symbol
_atom_site_fract_x
_atom_site_fract_y
_atom_site_fract_z
O1	O	1.004260	0.106222	-0.066178
O2	O	1.337593	0.439555	0.267155
O3	O	1.670927	0.772889	0.600489
O4	O	0.783905	0.120042	-0.066204
O5	O	1.117238	0.453375	0.267129
O6	O	1.450572	0.786708	0.600462
O7	O	0.900100	-0.009156	-0.066183
O8	O	1.233433	0.324178	0.267150
O9	O	1.566767	0.657511	0.600483
O10	O	0.888065	0.235419	-0.066199
O11	O	1.221398	0.568752	0.267134
O12	O	1.554732	0.902086	0.600467
O13	O	0.900084	-0.009164	0.066393
O14	O	1.233418	0.324170	0.399726
O15	O	1.566751	0.657503	0.733060
O16	O	0.783890	0.120034	0.066372
O17	O	1.117223	0.453367	0.399705
O18	O	1.450556	0.786700	0.733039
O19	O	1.004244	0.106214	0.066398
O20	O	1.337578	0.439547	0.399732
O21	O	1.670911	0.772881	0.733065
Zn22	Zn	0.894065	0.113123	0.087435
Zn23	Zn	1.227398	0.446456	0.420768
Zn24	Zn	1.560731	0.779789	0.754101
Zn25	Zn	0.894085	0.113133	-0.087241
Zn26	Zn	1.227418	0.446466	0.246093
Zn27	Zn	1.560752	0.779800	0.579426
O28	O	0.888050	0.235411	0.066377
O29	O	1.221383	0.568745	0.399711
O30	O	1.554716	0.902078	0.733044
C31	C	0.755700	0.119542	0.000080
C32	C	1.089033	0.452876	0.333414
C33	C	1.422366	0.786209	0.666747
C34	C	0.671679	0.118057	0.000071
C35	C	1.005012	0.451390	0.333404
C36	C	1.338346	0.784723	0.666737
C37	C	0.623187	0.193893	0.000066
C38	C	0.956521	0.527226	0.333399
C39	C	1.289854	0.860560	0.666733
C40	C	0.544242	0.192492	0.000076
C41	C	0.877575	0.525825	0.333410
C42	C	1.210908	0.859159	0.666743
C43	C	0.513789	0.115254	0.000086
C44	C	0.847122	0.448588	0.333419
C45	C	1.180456	0.781921	0.666752
C46	C	0.562287	0.039412	0.000093
C47	C	0.895620	0.372746	0.333426
C48	C	1.228953	0.706079	0.666759
C49	C	0.641231	0.040814	0.000088
C50	C	0.974564	0.374147	0.333421
C51	C	1.307898	0.707481	0.666755
C52	C	0.243914	0.033758	0.000113
C53	C	0.577247	0.367091	0.333446
C54	C	0.910581	0.700424	0.666780
C55	C	0.164964	0.032362	0.000115
C56	C	0.498297	0.365695	0.333449
C57	C	0.831630	0.699028	0.666782
C58	C	0.146925	0.185436	0.000101
C59	C	0.480258	0.518769	0.333435
C60	C	0.813592	0.852102	0.666768
C61	C	0.225869	0.186837	0.000096
C62	C	0.559202	0.520171	0.333430
C63	C	0.892536	0.853504	0.666763
C64	C	0.274360	0.110996	0.000108
C65	C	0.607693	0.444329	0.333441
C66	C	0.941026	0.777663	0.666774
C67	C	0.359962	0.112516	0.000098
C68	C	0.693295	0.445849	0.333431
C69	C	1.026628	0.779182	0.666765
C70	C	0.428189	0.113733	0.000090
C71	C	0.761522	0.447067	0.333423
C72	C	1.094855	0.780400	0.666757
C73	C	0.899593	-0.040453	0.000105
C74	C	1.232926	0.292881	0.333438
C75	C	1.566259	0.626214	0.666772
C76	C	0.898095	-0.133696	0.000105
C77	C	1.231428	0.199638	0.333439
C78	C	1.564761	0.532971	0.666772
C79	C	0.822492	-0.348393	0.000085
C80	C	1.155825	-0.015060	0.333419
C81	C	1.489158	0.318273	0.666752
C82	C	0.857592	-0.409488	0.065458
C83	C	1.190925	-0.076155	0.398791
C84	C	1.524258	0.257178	0.732124
C85	C	0.895385	-0.304416	0.000099
C86	C	1.228718	0.028918	0.333432
C87	C	1.562052	0.362251	0.666765
C88	C	0.857624	-0.409464	-0.065252
C89	C	1.190957	-0.076131	0.268081
C90	C	1.524291	0.257203	0.601414
C91	C	0.892762	-0.469323	0.000089
C92	C	1.226096	-0.135990	0.333422
C93	C	1.559429	0.197344	0.666756
C94	C	0.930505	-0.364283	0.065525
C95	C	1.263838	-0.030949	0.398858
C96	C	1.597172	0.302384	0.732192
C97	C	0.930527	-0.364252	-0.065244
C98	C	1.263861	-0.030919	0.268090
C99	C	1.597194	0.302415	0.601423
C100	C	0.965680	-0.425329	0.000145
C101	C	1.299014	-0.091996	0.333478
C102	C	1.632347	0.241337	0.666811
C103	C	0.896894	-0.209417	0.000105
C104	C	1.230227	0.123917	0.333438
C105	C	1.563561	0.457250	0.666772
C106	C	0.891259	-0.564321	0.000089
C107	C	1.224592	-0.230988	0.333422
C108	C	1.557926	0.102346	0.666755
C109	C	1.032450	0.106713	0.000112
C110	C	1.365783	0.440046	0.333445
C111	C	1.699117	0.773380	0.666778
C112	C	1.116471	0.108199	0.000116
C113	C	1.449804	0.441532	0.333450
C114	C	1.783137	0.774865	0.666783
C115	C	0.888557	0.266708	0.000087
C116	C	1.221890	0.600041	0.333421
C117	C	1.555224	0.933375	0.666754
C118	C	0.890055	0.359951	0.000082
C119	C	1.223388	0.693284	0.333415
C120	C	1.556721	1.026618	0.666748
N121	N	0.894056	0.113115	0.206646
N122	N	1.227390	0.446448	0.539979
N123	N	1.560723	0.779782	0.873312
N124	N	0.894099	0.113134	-0.206452
N125	N	1.227433	0.446467	0.126881
N126	N	1.560766	0.779801	0.460215
C127	C	0.945523	0.055930	0.248372
C128	C	1.278856	0.389263	0.581706
C129	C	1.612190	0.722596	0.915039
C130	C	0.945527	0.055929	0.331824
C131	C	1.278861	0.389262	0.665158
C132	C	1.612194	0.722596	0.998491
C133	C	0.894068	0.113118	0.373549
C134	C	1.227401	0.446451	0.706882
C135	C	1.560734	0.779785	1.040215
C136	C	0.842595	0.170306	0.331816
C137	C	1.175929	0.503639	0.665150
C138	C	1.509262	0.836973	0.998483
C139	C	0.842588	0.170302	0.248366
C140	C	1.175922	0.503635	0.581699
C141	C	1.509255	0.836969	0.915032
C142	C	0.842623	0.170323	0.668364
C143	C	1.175956	0.503656	1.001697
C144	C	1.509290	0.836989	1.335030
C145	C	0.842636	0.170324	0.751820
C146	C	1.175969	0.503657	1.085153
C147	C	1.509302	0.836990	1.418487
C148	C	0.945562	0.055949	0.751822
C149	C	1.278895	0.389283	1.085156
C150	C	1.612228	0.722616	1.418489
C151	C	0.945555	0.055945	0.668372
C152	C	1.278888	0.389279	1.001705
C153	C	1.612221	0.722612	1.335038
C154	C	0.894080	0.113130	0.626647
C155	C	1.227413	0.446463	0.959980
C156	C	1.560747	0.779797	1.293313
C157	C	0.894075	0.113129	0.536158
C158	C	1.227408	0.446462	0.869492
C159	C	1.560742	0.779796	1.202825
C160	C	0.894076	0.113124	0.464036
C161	C	1.227409	0.446457	0.797369
C162	C	1.560742	0.779790	1.130702
H163	H	0.647975	0.256789	0.000058
H164	H	0.981309	0.590122	0.333391
H165	H	1.314642	0.923456	0.666724
H166	H	0.961338	-0.344183	-0.120506
H167	H	1.294671	-0.010850	0.212827
H168	H	1.628005	0.322484	0.546160
Br169	Br	1.015371	-0.021683	0.191755
Br170	Br	1.348704	0.311651	0.525088
Br171	Br	1.682037	0.644984	0.858422
H172	H	0.987435	0.009364	0.365798
H173	H	1.320768	0.342697	0.699131
H174	H	1.654101	0.676031	1.032464
H175	H	0.987473	0.009384	0.785804
H176	H	1.320806	0.342717	1.119137
H177	H	1.654140	0.676051	1.452470
Br178	Br	0.478434	0.295417	0.000067
Br179	Br	0.811767	0.628751	0.333401
Br180	Br	1.145101	0.962084	0.666734
Br181	Br	0.520959	-0.065412	0.000113
Br182	Br	0.854293	0.267921	0.333447
Br183	Br	1.187626	0.601254	0.666780
H184	H	0.987460	0.009380	0.634402
H185	H	1.320793	0.342713	0.967736
H186	H	1.654127	0.676046	1.301069
H187	H	0.250659	0.249732	0.000085
H188	H	0.583992	0.583066	0.333419
H189	H	0.917325	0.916399	0.666752
Br190	Br	0.772750	0.247916	0.388439
Br191	Br	1.106083	0.581249	0.721772
Br192	Br	1.439417	0.914583	1.055106
Br193	Br	0.772794	0.247944	0.808446
Br194	Br	1.106127	0.581277	1.141780
Br195	Br	1.439460	0.914610	1.475113
H196	H	0.107434	0.247189	0.000096
H197	H	0.440767	0.580523	0.333430
H198	H	0.774100	0.913856	0.666763
H199	H	0.800712	0.216886	0.634398
H200	H	1.134045	0.550219	0.967731
H201	H	1.467379	0.883552	1.301064
Br202	Br	0.309713	-0.069170	0.000130
Br203	Br	0.643046	0.264163	0.333463
Br204	Br	0.976380	0.597496	0.666797
H205	H	0.680713	-0.020940	0.000091
H206	H	1.014046	0.312394	0.333425
H207	H	1.347379	0.645727	0.666758
Br208	Br	0.123636	-0.072468	0.000126
Br209	Br	0.456969	0.260865	0.333459
Br210	Br	0.790302	0.594198	0.666792
Br211	Br	0.772732	0.247909	0.191737
Br212	Br	1.106066	0.581242	0.525070
Br213	Br	1.439399	0.914575	0.858404
H214	H	0.761987	-0.314958	0.000143
H215	H	1.095320	0.018375	0.333477
H216	H	1.428653	0.351708	0.666810
Br217	Br	1.066613	-0.480811	0.000213
Br218	Br	1.399946	-0.147478	0.333546
Br219	Br	1.733279	0.185855	0.666879
H220	H	0.961304	-0.344360	0.120853
H221	H	1.294637	-0.011027	0.454186
H222	H	1.627970	0.322306	0.787520
Br223	Br	0.806198	-0.442900	0.157563
Br224	Br	1.139531	-0.109567	0.490897
Br225	Br	1.472864	0.223766	0.824230
H226	H	0.826790	-0.429473	-0.120524
H227	H	1.160123	-0.096139	0.212810
H228	H	1.493457	0.237194	0.546143
