data_functionalizedCrystal
_audit_creation_method	'MofGen! by Chris Wilmer'
_symmetry_space_group_name_H-M	'P1'
_symmetry_Int_Tables_number	1
_symmetry_cell_setting	triclinic
loop_
_symmetry_equiv_pos_as_xyz
  x,y,z
_cell_length_a	12.811438
_cell_length_b	12.811415
_cell_length_c	9.730223
_cell_angle_alpha	84.564740
_cell_angle_beta	95.429385
_cell_angle_gamma	84.560771
loop_
_atom_site_label
_atom_site_type_symbol
_atom_site_fract_x
_atom_site_fract_y
_atom_site_fract_z
O1	O	1.393277	0.141394	0.041771
O2	O	1.087763	0.156763	0.001769
O3	O	1.248206	-0.003680	0.041773
O4	O	1.232834	0.301838	0.001767
O5	O	1.248196	-0.003685	0.270352
O6	O	1.087753	0.156759	0.230348
O7	O	1.393267	0.141390	0.270350
Zn8	Zn	1.240508	0.149074	0.286641
Zn9	Zn	1.240522	0.149079	-0.014522
O10	O	1.232824	0.301833	0.230346
C11	C	1.048650	0.155899	0.111291
C12	C	0.932122	0.153318	0.097085
C13	C	0.767884	0.149682	-0.047519
C14	C	0.877373	0.152106	-0.034184
C15	C	0.877376	0.152101	0.215028
C16	C	0.767888	0.149677	0.201692
C17	C	0.713145	0.148469	0.070414
C18	C	0.603654	0.146052	0.057079
C19	C	0.603660	0.146039	0.306290
C20	C	0.713149	0.148464	0.319626
C21	C	1.247339	-0.042790	0.160828
C22	C	1.244760	-0.159320	0.175026
C23	C	1.239905	-0.378275	-0.047522
C24	C	1.237481	-0.487765	-0.034189
C25	C	1.237481	-0.487791	0.215025
C26	C	1.239905	-0.378301	0.201691
C27	C	1.241118	-0.323547	0.070414
C28	C	1.243549	-0.214056	0.057082
C29	C	1.243542	-0.214083	0.306293
C30	C	1.241118	-0.323573	0.319627
C31	C	1.432380	0.142254	0.160826
C32	C	1.548908	0.144835	0.175022
C33	C	1.233691	0.340943	0.111288
C34	C	1.236270	0.457473	0.097081
N35	N	1.240507	0.149069	0.492178
N36	N	1.240532	0.149076	-0.220057
C37	C	1.311575	0.078055	0.581817
C38	C	1.311585	0.078055	0.725701
C39	C	1.169456	0.220093	0.690293
C40	C	1.169441	0.220087	0.546411
H41	H	0.559080	0.145056	0.402320
H42	H	0.723310	0.148710	-0.154412
O43	O	1.380580	0.008930	0.812637
C44	C	1.441267	-0.173274	0.887003
C45	C	1.363087	-0.095102	0.788448
H46	H	1.427137	-0.257402	0.867501
H47	H	1.525408	-0.159261	0.867407
H48	H	1.429087	-0.161024	0.999144
H49	H	1.375171	-0.107306	0.676271
H50	H	1.278974	-0.109135	0.808164
H51	H	1.236484	-0.532389	0.321904
O52	O	1.100286	0.288974	0.742916
C53	C	0.918058	0.349606	0.756649
C54	C	0.996275	0.271521	0.696990
H55	H	0.833949	0.335537	0.719518
H56	H	0.930187	0.337413	0.874888
H57	H	0.932143	0.433736	0.719630
H58	H	0.982238	0.187360	0.733904
H59	H	0.984128	0.283806	0.578757
H60	H	0.559083	0.145073	-0.049815
H61	H	1.240126	-0.368168	0.426509
O62	O	1.240905	-0.325101	-0.175089
C63	C	1.150878	-0.280122	-0.404954
C64	C	1.149597	-0.340370	-0.260536
H65	H	1.077075	-0.292463	-0.474087
H66	H	1.152752	-0.192446	-0.394307
H67	H	1.223807	-0.310917	-0.453410
H68	H	1.076679	-0.309664	-0.211999
H69	H	1.147779	-0.428038	-0.271273
O70	O	0.766486	0.149690	0.447032
C71	C	0.935167	0.153362	0.578034
C72	C	0.874895	0.151996	0.433660
H73	H	1.022830	0.155204	0.567275
H74	H	0.904434	0.226274	0.626573
H75	H	0.922858	0.079536	0.647158
H76	H	0.887179	0.225772	0.364429
H77	H	0.905640	0.079036	0.385232
H78	H	1.111564	0.277916	0.473420
O79	O	1.244536	-0.160853	0.420802
C80	C	1.156501	-0.025717	0.537617
C81	C	1.155224	-0.085931	0.407879
H82	H	1.084312	0.034885	0.527200
H83	H	1.155152	-0.083612	0.633764
H84	H	1.231039	0.016201	0.547894
H85	H	1.080699	-0.127853	0.397470
H86	H	1.156629	-0.027988	0.311797
O87	O	1.236440	-0.541056	-0.148634
C88	C	1.324552	-0.676095	-0.265529
C89	C	1.325852	-0.615847	-0.135820
H90	H	1.396845	-0.736562	-0.255226
H91	H	1.250098	-0.718147	-0.275822
H92	H	1.325783	-0.618117	-0.361621
H93	H	1.324660	-0.673755	-0.039654
H94	H	1.400300	-0.573779	-0.125650
H95	H	1.244541	-0.169478	-0.049810
H96	H	0.921937	0.153094	-0.130217
H97	H	0.921968	0.153073	0.321910
H98	H	1.369439	0.020226	0.537664
