data_functionalizedCrystal
_audit_creation_method	'MofGen! by Chris Wilmer'
_symmetry_space_group_name_H-M	'P1'
_symmetry_Int_Tables_number	1
_symmetry_cell_setting	triclinic
loop_
_symmetry_equiv_pos_as_xyz
  x,y,z
_cell_length_a	19.188930
_cell_length_b	8.559649
_cell_length_c	7.088929
_cell_angle_alpha	84.674985
_cell_angle_beta	83.792352
_cell_angle_gamma	103.538277
loop_
_atom_site_label
_atom_site_type_symbol
_atom_site_fract_x
_atom_site_fract_y
_atom_site_fract_z
O1	O	-0.015637	-2.103838	-0.158953
O2	O	0.020435	-1.638380	-0.158972
O3	O	-0.099961	-1.884545	-0.158924
O4	O	0.104759	-1.857673	-0.159000
O5	O	-0.116083	-1.917443	0.159057
O6	O	0.004313	-1.671278	0.159009
O7	O	-0.031759	-2.136736	0.159029
Cu8	Cu	-0.015195	-1.907011	0.188053
Cu9	Cu	0.003871	-1.868105	-0.187997
O10	O	0.088637	-1.890571	0.158981
C11	C	0.015108	-1.595280	0.000017
C12	C	0.023245	-1.417842	0.000011
C13	C	-0.133987	-1.900125	0.000072
C14	C	-0.211356	-1.897515	0.000088
C15	C	-0.026431	-2.179836	0.000036
C16	C	-0.034568	-2.357272	0.000029
C17	C	-0.263833	-2.041955	0.000103
C18	C	-0.336527	-2.039498	0.000073
C19	C	-0.356742	-1.892597	0.000065
C20	C	-0.304254	-1.748137	0.000039
C21	C	-0.231561	-1.750596	0.000050
N22	N	-0.464363	-1.791505	0.108275
N23	N	-0.533419	-1.789179	0.108268
C24	C	-0.575761	-1.885180	0.000026
N25	N	-0.546442	-1.983621	-0.108185
N26	N	-0.477380	-1.985952	-0.108170
C27	C	-0.435564	-1.889915	0.000051
C28	C	-0.707062	-2.026966	0.000005
C29	C	-0.779756	-2.024502	-0.000037
C30	C	-0.747483	-1.733139	-0.000052
C31	C	-0.674789	-1.735605	-0.000028
C32	C	-0.654585	-1.882524	0.000009
C33	C	0.122664	-1.874991	-0.000019
C34	C	0.200034	-1.877599	-0.000048
N35	N	-0.028606	-1.934386	0.452547
N36	N	0.017276	-1.840742	-0.452490
H37	H	-0.247388	-2.161587	0.000127
H38	H	0.064824	-1.743691	0.465845
Cl39	Cl	-0.681659	-2.211661	0.000064
H40	H	-0.076153	-2.031455	0.534222
Cl41	Cl	-0.329666	-1.563459	0.000014
Cl42	Cl	-0.402509	-2.221094	0.000090
H43	H	-0.188832	-1.632971	0.000039
H44	H	0.078971	-1.333944	-0.000020
Cl45	Cl	-0.608815	-1.554012	-0.000039
H46	H	-0.822484	-2.142127	-0.000035
H47	H	-0.090289	-1.441159	0.000040
Cl48	Cl	-0.772888	-1.548459	-0.000072
