data_functionalizedCrystal
_audit_creation_method	'MofGen! by Chris Wilmer'
_symmetry_space_group_name_H-M	'P1'
_symmetry_Int_Tables_number	1
_symmetry_cell_setting	triclinic
loop_
_symmetry_equiv_pos_as_xyz
  x,y,z
_cell_length_a	6.817900
_cell_length_b	7.076028
_cell_length_c	17.708557
_cell_angle_alpha	89.909618
_cell_angle_beta	102.890728
_cell_angle_gamma	117.700652
loop_
_atom_site_label
_atom_site_type_symbol
_atom_site_fract_x
_atom_site_fract_y
_atom_site_fract_z
V1	V	-4.192308	-0.656748	-0.105551
O2	O	-4.184287	-0.652839	0.006337
O3	O	-4.135368	-0.643992	-0.210506
O4	O	-4.219451	-0.946949	-0.103372
O5	O	-4.099622	-0.347785	-0.101538
V6	V	-4.667254	-0.620798	-0.092233
O7	O	-4.472381	-0.735609	-0.134764
O8	O	-4.837379	-0.541937	-0.063020
O9	O	-4.500989	-0.633553	0.012722
O10	O	-4.792672	-0.624707	-0.204121
O11	O	-4.877338	-0.929761	-0.096246
O12	O	-4.416906	-0.330597	-0.094412
C13	C	-3.975846	-0.631499	-0.236109
C14	C	-4.011081	-0.623004	-0.321908
C15	C	-4.202230	-0.629041	-0.363876
C16	C	-4.238651	-0.620262	-0.452554
C17	C	-4.323865	-0.646042	0.038322
C18	C	-4.266837	-0.654742	0.125731
C19	C	-4.216580	-0.259586	-0.098337
C20	C	-4.090068	-0.017941	-0.099443
V21	V	-4.428527	-0.649377	0.267886
O22	O	-4.388087	-0.640349	0.381724
O23	O	-4.405836	-0.648060	0.158592
O24	O	-4.489294	-0.951101	0.265695
O25	O	-4.304052	-0.335210	0.273880
V26	V	-4.851428	-0.555847	0.302982
O27	O	-4.701400	-0.701318	0.248846
O28	O	-4.987418	-0.451722	0.341757
O29	O	-4.671406	-0.583037	0.402491
O30	O	-4.998486	-0.551268	0.194290
O31	O	-5.082522	-0.856407	0.302135
O32	O	-4.587948	-0.279996	0.295388
C33	C	-4.504639	-0.615354	0.420593
C34	C	-4.429820	-0.626300	0.505480
C35	C	-4.398167	-0.228794	0.283974
C36	C	-4.252992	0.010437	0.281965
H37	H	-4.566527	-0.637978	-0.464805
H38	H	-4.338922	-0.640722	-0.334156
N39	N	-3.830003	-0.607541	-0.361265
H40	H	-3.881685	-0.603454	-0.419035
H41	H	-3.682179	-0.472141	-0.338253
H42	H	-4.101956	-0.608604	-0.482272
