data_functionalizedCrystal
_audit_creation_method	'MofGen! by Chris Wilmer'
_symmetry_space_group_name_H-M	'P1'
_symmetry_Int_Tables_number	1
_symmetry_cell_setting	triclinic
loop_
_symmetry_equiv_pos_as_xyz
  x,y,z
_cell_length_a	14.519709
_cell_length_b	15.072220
_cell_length_c	15.995362
_cell_angle_alpha	89.996009
_cell_angle_beta	83.588762
_cell_angle_gamma	90.001669
loop_
_atom_site_label
_atom_site_type_symbol
_atom_site_fract_x
_atom_site_fract_y
_atom_site_fract_z
O1	O	-1.223672	0.073656	-0.109764
O2	O	-0.955172	0.073682	-0.122689
O3	O	-1.096756	0.073675	0.005650
O4	O	-1.082088	0.073663	-0.238102
O5	O	-1.096747	-0.073891	0.005665
O6	O	-0.955163	-0.073883	-0.122674
O7	O	-1.223663	-0.073909	-0.109748
Zn8	Zn	-1.089411	-0.097325	-0.116208
Zn9	Zn	-1.089424	0.097098	-0.116229
O10	O	-1.082079	-0.073902	-0.238087
C11	C	-0.920809	-0.000097	-0.122079
C12	C	-0.818431	-0.000087	-0.120274
N13	N	-1.089410	-0.230014	-0.116194
C14	C	-1.258026	-0.000128	-0.110358
C15	C	-1.360404	-0.000133	-0.112163
C16	C	-1.096143	-0.000104	0.036853
C17	C	-1.094319	-0.000094	0.129805
C18	C	-0.443547	-0.000127	-0.113628
C19	C	-0.547851	-0.000115	-0.115474
C20	C	-0.630986	-0.000106	-0.116951
C21	C	-0.735297	-0.000096	-0.118797
C22	C	-1.089424	-0.589216	-0.116222
C23	C	-1.165429	-0.551585	-0.047781
C24	C	-1.165230	-0.448759	-0.047528
C25	C	-1.089418	-0.411012	-0.116208
C26	C	-0.993200	-0.448344	-0.096984
C27	C	-0.993650	-0.551202	-0.096500
C28	C	-1.108771	-0.551299	-0.204089
C29	C	-1.110955	-0.448435	-0.203504
C30	C	-1.089408	-0.310298	-0.116202
C31	C	-1.089428	-0.689929	-0.116227
N32	N	-1.089433	0.229787	-0.116237
C33	C	-1.087769	-0.000076	0.467561
C34	C	-0.986933	0.000262	0.420278
C35	C	-0.988758	-0.000077	0.323586
C36	C	-1.091018	-0.000085	0.299996
C37	C	-1.140747	-0.084352	0.341008
C38	C	-1.138209	-0.084417	0.437647
C39	C	-1.140303	0.083392	0.437984
C40	C	-1.140284	0.084500	0.341039
C41	C	-1.092859	-0.000092	0.205297
C42	C	-1.085930	-0.000075	0.562261
C43	C	-1.082680	-0.000106	0.730709
C44	C	-1.084468	-0.000067	0.637752
H45	H	-1.236753	-0.423518	-0.058996
C46	C	-1.091240	0.168719	0.304224
H47	H	-1.040952	0.152412	0.264003
H48	H	-1.068587	0.201812	0.348154
H49	H	-1.133925	0.203886	0.277780
H50	H	-0.946632	0.060695	0.438864
H51	H	-0.949396	-0.060582	0.295786
H52	H	-0.935279	-0.423894	-0.145500
C53	C	-1.089197	-0.169499	0.462456
H54	H	-1.071018	-0.203695	0.413495
H55	H	-1.130393	-0.203192	0.500369
H56	H	-1.035925	-0.154094	0.488797
H57	H	-1.214856	0.089582	0.325565
C58	C	-1.240732	0.084163	0.480745
H59	H	-1.250636	0.033894	0.516454
H60	H	-1.282399	0.082309	0.439021
H61	H	-1.251110	0.136755	0.513160
H62	H	-1.237192	-0.576322	-0.059067
H63	H	-0.949667	0.060330	0.295216
C64	C	-0.932721	-0.080913	0.446825
H65	H	-0.971273	-0.115011	0.486596
H66	H	-0.879634	-0.061534	0.471447
H67	H	-0.913827	-0.116286	0.398804
C68	C	-1.242239	-0.088602	0.321782
H69	H	-1.271000	-0.140045	0.347171
H70	H	-1.244009	-0.091130	0.262643
H71	H	-1.274327	-0.037251	0.343690
C72	C	-1.148972	-0.586498	0.039807
H73	H	-1.095981	-0.623906	0.034846
H74	H	-1.201624	-0.619226	0.063038
H75	H	-1.139138	-0.537896	0.075568
H76	H	-0.935393	-0.576095	-0.144446
H77	H	-0.975730	-0.422587	-0.033627
H78	H	-1.212241	-0.088243	0.469784
H79	H	-1.152869	-0.424157	0.017677
H80	H	-0.976599	-0.575197	-0.032415
C81	C	-1.094072	-0.169068	0.302761
H82	H	-1.044286	-0.153263	0.261810
H83	H	-1.138113	-0.203169	0.276960
H84	H	-1.070997	-0.203027	0.345924
C85	C	-1.201527	-0.586339	-0.229004
H86	H	-1.229326	-0.624424	-0.186045
H87	H	-1.190755	-0.618373	-0.280307
H88	H	-1.241737	-0.537835	-0.236010
H89	H	-1.059185	-0.422738	-0.256831
C90	C	-1.206563	-0.415461	-0.223225
H91	H	-1.219192	-0.438322	-0.276109
H92	H	-1.206638	-0.352467	-0.225102
H93	H	-1.252845	-0.435261	-0.180633
C94	C	-1.033903	-0.584178	-0.272898
H95	H	-0.991057	-0.620835	-0.248245
H96	H	-1.002191	-0.534721	-0.299288
H97	H	-1.062274	-0.617282	-0.313603
C98	C	-1.095768	0.169679	0.465781
H99	H	-1.044713	0.155604	0.495687
H100	H	-1.140263	0.202582	0.501185
H101	H	-1.074830	0.204076	0.417611
