data_functionalizedCrystal
_audit_creation_method	'MofGen! by Chris Wilmer'
_symmetry_space_group_name_H-M	'P1'
_symmetry_Int_Tables_number	1
_symmetry_cell_setting	triclinic
loop_
_symmetry_equiv_pos_as_xyz
  x,y,z
_cell_length_a	16.793024
_cell_length_b	16.793047
_cell_length_c	33.586455
_cell_angle_alpha	113.253857
_cell_angle_beta	66.219990
_cell_angle_gamma	112.758327
loop_
_atom_site_label
_atom_site_type_symbol
_atom_site_fract_x
_atom_site_fract_y
_atom_site_fract_z
O1	O	0.005016	-0.570216	-0.583573
O2	O	-0.034529	-0.474528	-0.453458
O3	O	0.114723	-0.474535	-0.528082
O4	O	-0.144235	-0.570209	-0.508949
O5	O	0.108729	-0.346329	-0.530229
O6	O	-0.040523	-0.346322	-0.455605
O7	O	-0.000977	-0.442010	-0.585721
Zn8	Zn	-0.021701	-0.373810	-0.521004
Zn9	Zn	-0.013805	-0.542728	-0.518175
O10	O	-0.150229	-0.442003	-0.511097
C11	C	0.005100	-0.790970	-0.238461
C12	C	-0.040584	-0.395375	-0.435637
C13	C	-0.044693	-0.353446	-0.386631
C14	C	-0.039275	-0.401741	-0.363054
C15	C	-0.040566	-0.125547	-0.300731
C16	C	-0.044689	-0.223451	-0.321635
C17	C	-0.039266	-0.270752	-0.297563
C18	C	0.005118	-0.521142	-0.103554
C19	C	-0.046224	-0.263935	-0.366370
C20	C	-0.036476	-0.360146	-0.318399
C21	C	-0.030850	-0.408530	-0.294565
C22	C	-0.028014	-0.367522	-0.249895
C23	C	-0.030804	-0.278128	-0.229058
C24	C	-0.036430	-0.229743	-0.252892
C25	C	-0.027971	-0.237122	-0.184383
C26	C	-0.022345	-0.285507	-0.160550
C27	C	-0.019555	-0.374900	-0.181386
C28	C	-0.022391	-0.415909	-0.226057
C29	C	-0.019601	-0.505302	-0.246894
C30	C	-0.013975	-0.553687	-0.223060
C31	C	-0.011142	-0.512684	-0.178391
C32	C	-0.013932	-0.423291	-0.157554
C33	C	-0.005516	-0.561069	-0.154557
C34	C	-0.002726	-0.650463	-0.175394
C35	C	-0.005562	-0.691471	-0.220064
C36	C	-0.011185	-0.643081	-0.243897
C37	C	-0.022434	-0.546309	-0.291568
C38	C	-0.019644	-0.635702	-0.312405
C39	C	-0.014021	-0.684089	-0.288567
C40	C	-0.022480	-0.676711	-0.357076
C41	C	-0.028106	-0.628326	-0.380910
C42	C	-0.030896	-0.538933	-0.360073
C43	C	-0.028060	-0.497924	-0.315402
C44	C	-0.036522	-0.490548	-0.383907
C45	C	0.815184	-0.521162	-0.508596
C46	C	0.415541	-0.125553	-0.528781
C47	C	0.375032	-0.223457	-0.531493
C48	C	0.423813	-0.270761	-0.529101
C49	C	0.149318	-0.395376	-0.530584
C50	C	0.246774	-0.353455	-0.532364
C51	C	0.294574	-0.401748	-0.529976
C52	C	0.548961	-0.790984	-0.510398
C53	C	0.286104	-0.263940	-0.532530
C54	C	0.383336	-0.360149	-0.528302
C55	C	0.432207	-0.407971	-0.525810
C56	C	0.392316	-0.497392	-0.524993
C57	C	0.303554	-0.538991	-0.526667
C58	C	0.254683	-0.491169	-0.529159
C59	C	0.263666	-0.628421	-0.525851
C60	C	0.312537	-0.676243	-0.523359
C61	C	0.401299	-0.634644	-0.521685
C62	C	0.441190	-0.545223	-0.522502
C63	C	0.529952	-0.503624	-0.520828
C64	C	0.578823	-0.551446	-0.518336
C65	C	0.538939	-0.640864	-0.517520
C66	C	0.450177	-0.682463	-0.519194
C67	C	0.587810	-0.688687	-0.515028
C68	C	0.676572	-0.647088	-0.513354
C69	C	0.716463	-0.557666	-0.514172
C70	C	0.667586	-0.509847	-0.516662
C71	C	0.569840	-0.414195	-0.521644
C72	C	0.658602	-0.372596	-0.519970
C73	C	0.707476	-0.420426	-0.517480
C74	C	0.698493	-0.283174	-0.520788
C75	C	0.649622	-0.235352	-0.523280
C76	C	0.560860	-0.276951	-0.524954
C77	C	0.520969	-0.366372	-0.524136
C78	C	0.511989	-0.229129	-0.527446
C79	C	-0.040530	-0.395407	-0.935652
C80	C	0.005063	-0.791004	-0.738448
C81	C	0.009186	-0.693099	-0.717543
C82	C	0.003779	-0.645796	-0.741620
C83	C	0.005077	-0.521171	-0.603544
C84	C	0.009198	-0.563096	-0.652550
C85	C	0.003786	-0.514804	-0.676131
C86	C	-0.040516	-0.125574	-0.800747
C87	C	0.010719	-0.652613	-0.672809
C88	C	0.000994	-0.556406	-0.720789
C89	C	-0.004621	-0.508585	-0.744908
C90	C	-0.007444	-0.419162	-0.724369
C91	C	-0.004651	-0.377560	-0.679711
C92	C	0.000964	-0.425381	-0.655592
C93	C	-0.007471	-0.288129	-0.659174
C94	C	-0.013086	-0.240308	-0.683293
C95	C	-0.015878	-0.281910	-0.727951
C96	C	-0.013056	-0.371333	-0.748490
C97	C	-0.015848	-0.412935	-0.793148
C98	C	-0.021463	-0.365114	-0.817267
C99	C	-0.024282	-0.275694	-0.796731
C100	C	-0.021490	-0.234092	-0.752073
C101	C	-0.029897	-0.227873	-0.820850
C102	C	-0.032690	-0.269476	-0.865508
C103	C	-0.029867	-0.358899	-0.886047
C104	C	-0.024255	-0.406717	-0.861925
C105	C	-0.013028	-0.502367	-0.813685
C106	C	-0.015821	-0.543969	-0.858343
C107	C	-0.021433	-0.496140	-0.882464
C108	C	-0.012998	-0.633392	-0.878882
C109	C	-0.007383	-0.681213	-0.854763
C110	C	-0.004591	-0.639611	-0.810105
C111	C	-0.007414	-0.550188	-0.789566
C112	C	0.001024	-0.687432	-0.785986
O113	O	-0.000965	0.173549	-0.277957
O114	O	-0.040516	-0.085616	-0.325254
O115	O	0.108737	0.059592	-0.327284
O116	O	-0.150219	0.028341	-0.275927
O117	O	0.114753	0.055151	-0.263265
O118	O	-0.034500	-0.090057	-0.261234
O119	O	0.005051	0.169108	-0.213937
Zn120	Zn	-0.013769	0.038820	-0.227421
Zn121	Zn	-0.021696	0.044672	-0.311770
O122	O	-0.144202	0.023900	-0.211907
O123	O	-0.034458	-0.474571	0.046517
O124	O	0.005076	-0.570190	-0.083599
O125	O	-0.144170	-0.570237	-0.008972
O126	O	0.114787	-0.474523	-0.028110
O127	O	-0.150200	-0.442024	-0.011093
O128	O	-0.000954	-0.441976	-0.085720
O129	O	-0.040488	-0.346357	0.044396
Zn130	Zn	-0.021679	-0.373810	-0.020999
Zn131	Zn	-0.013734	-0.542737	-0.018204
O132	O	0.108757	-0.346309	-0.030231
C133	C	-0.850734	0.086244	-0.289716
C134	C	-0.450996	0.035117	-0.097351
C135	C	-0.410501	0.028587	-0.146852
C136	C	-0.459292	0.034683	-0.169840
C137	C	-0.184802	0.024283	-0.235878
C138	C	-0.282257	0.023363	-0.213592
C139	C	-0.330068	0.029423	-0.237088
C140	C	-0.584541	0.075410	-0.428242
C141	C	-0.321573	0.024104	-0.168302
C142	C	-0.418828	0.035176	-0.215083
C143	C	-0.467711	0.041476	-0.238329
C144	C	-0.427833	0.042022	-0.283580
C145	C	-0.339073	0.036269	-0.305586
C146	C	-0.290190	0.029970	-0.282340
C147	C	-0.299198	0.036812	-0.350842
C148	C	-0.348081	0.043111	-0.374088
C149	C	-0.436841	0.048864	-0.352082
C150	C	-0.476719	0.048318	-0.306830
C151	C	-0.565480	0.054071	-0.284825
C152	C	-0.614362	0.060370	-0.308071
C153	C	-0.574491	0.060913	-0.353321
C154	C	-0.485730	0.055160	-0.375326
C155	C	-0.623374	0.067212	-0.376567
C156	C	-0.712134	0.072965	-0.354561
C157	C	-0.752012	0.072419	-0.309309
C158	C	-0.703123	0.066123	-0.286065
C159	C	-0.605355	0.053528	-0.239569
C160	C	-0.694115	0.059281	-0.217564
C161	C	-0.743001	0.065577	-0.240813
C162	C	-0.733993	0.058735	-0.172312
C163	C	-0.685110	0.052436	-0.149066
C164	C	-0.596350	0.046683	-0.171072
C165	C	-0.556472	0.047229	-0.216323
C166	C	-0.547467	0.040383	-0.147826
O167	O	0.585213	0.169090	-0.504004
O168	O	0.494056	-0.090076	-0.525516
O169	O	0.488081	0.055124	-0.449918
O170	O	0.591189	0.023889	-0.579602
O171	O	0.359978	0.059584	-0.452885
O172	O	0.365953	-0.085616	-0.528483
O173	O	0.457110	0.173550	-0.506971
Zn174	Zn	0.391193	0.044675	-0.518198
Zn175	Zn	0.559974	0.038798	-0.514289
O176	O	0.463086	0.028349	-0.582569
C177	C	0.815354	-0.521094	-0.008709
C178	C	0.415547	-0.125494	-0.028771
C179	C	0.375059	-0.223405	-0.031498
C180	C	0.423859	-0.270708	-0.029121
C181	C	0.149365	-0.395355	-0.030599
C182	C	0.246820	-0.353421	-0.032381
C183	C	0.294640	-0.401713	-0.030008
C184	C	0.549171	-0.790955	-0.010537
C185	C	0.286131	-0.263897	-0.032533
C186	C	0.383402	-0.360104	-0.028335
C187	C	0.432293	-0.407926	-0.025859
C188	C	0.392422	-0.497356	-0.025055
C189	C	0.303660	-0.538965	-0.026727
C190	C	0.254769	-0.491143	-0.029204
C191	C	0.263791	-0.628403	-0.025925
C192	C	0.312683	-0.676224	-0.023448
C193	C	0.401445	-0.634615	-0.021775
C194	C	0.441316	-0.545185	-0.022579
C195	C	0.530078	-0.503576	-0.020906
C196	C	0.578969	-0.551398	-0.018429
C197	C	0.539104	-0.640825	-0.017627
C198	C	0.450342	-0.682434	-0.019300
C199	C	0.587995	-0.688646	-0.015150
C200	C	0.676757	-0.647037	-0.013477
C201	C	0.716628	-0.557607	-0.014281
C202	C	0.667731	-0.509789	-0.016757
C203	C	0.569946	-0.414138	-0.021709
C204	C	0.658708	-0.372530	-0.020036
C205	C	0.707602	-0.420359	-0.017561
C206	C	0.698579	-0.283100	-0.020840
C207	C	0.649688	-0.235278	-0.023317
C208	C	0.560926	-0.276887	-0.024990
C209	C	0.521055	-0.366317	-0.024186
C210	C	0.512035	-0.229066	-0.027467
O211	O	-0.620614	0.089309	0.052274
O212	O	-0.529507	0.043784	-0.078544
O213	O	-0.523494	0.194833	-0.006033
O214	O	-0.626628	-0.061740	-0.020236
O215	O	-0.395386	0.185419	-0.005549
O216	O	-0.401400	0.034370	-0.078059
O217	O	-0.492507	0.079895	0.052758
Zn218	Zn	-0.426614	0.055638	-0.012574
Zn219	Zn	-0.595401	0.068041	-0.013212
O220	O	-0.498521	-0.071154	-0.019752
C221	C	-0.437537	0.048335	0.402491
C222	C	-0.837226	0.099430	0.210091
C223	C	-0.739773	0.100339	0.187806
C224	C	-0.691967	0.094287	0.211308
C225	C	-0.571027	0.088563	0.071568
C226	C	-0.611521	0.095108	0.121070
C227	C	-0.562739	0.089011	0.144061
C228	C	-0.171338	0.037467	0.263967
C229	C	-0.700452	0.099593	0.142516
C230	C	-0.603213	0.088528	0.189308
C231	C	-0.554892	0.082255	0.212848
C232	C	-0.466098	0.076466	0.191141
C233	C	-0.425624	0.076949	0.145894
C234	C	-0.473945	0.083222	0.122354
C235	C	-0.336822	0.071163	0.124188
C236	C	-0.288502	0.064890	0.147728
C237	C	-0.328975	0.064407	0.192975
C238	C	-0.417770	0.070196	0.214682
C239	C	-0.458244	0.069713	0.259929
C240	C	-0.409923	0.063441	0.283469
C241	C	-0.321132	0.057655	0.261765
C242	C	-0.280658	0.058138	0.216518
C243	C	-0.272811	0.051382	0.285305
C244	C	-0.313285	0.050899	0.330552
C245	C	-0.402079	0.056688	0.352259
C246	C	-0.450397	0.062957	0.328716
C247	C	-0.547046	0.075500	0.281635
C248	C	-0.587520	0.075016	0.326882
C249	C	-0.539191	0.068747	0.350423
C250	C	-0.676314	0.080806	0.348589
C251	C	-0.724634	0.087078	0.325049
C252	C	-0.684160	0.087561	0.279802
C253	C	-0.595366	0.081772	0.258095
C254	C	-0.732481	0.093834	0.256262
O255	O	-0.040608	-1.085661	-0.825229
O256	O	-0.001018	-0.826491	-0.777938
O257	O	-0.150287	-0.971682	-0.775894
O258	O	0.108661	-0.940470	-0.827272
O259	O	-0.144253	-0.976123	-0.711878
O260	O	0.005016	-0.830932	-0.713922
O261	O	-0.034575	-1.090102	-0.761213
Zn262	Zn	-0.013821	-0.961222	-0.727403
Zn263	Zn	-0.021771	-0.955371	-0.811747
O264	O	0.114695	-0.944911	-0.763256
O265	O	-0.049524	-0.216405	-0.390125
C266	C	-0.131927	-0.204545	-0.431045
C267	C	-0.128318	-0.258447	-0.404142
H268	H	-0.195616	-0.238525	-0.442393
H269	H	-0.132936	-0.133089	-0.408598
H270	H	-0.069853	-0.202148	-0.462092
H271	H	-0.190379	-0.260916	-0.373094
H272	H	-0.127263	-0.329875	-0.426621
O273	O	0.411309	-0.769628	-0.018462
C274	C	0.290133	-0.873391	0.020592
C275	C	0.334226	-0.774613	0.019695
H276	H	0.227814	-0.877451	0.051445
H277	H	0.269433	-0.915312	-0.011623
H278	H	0.340558	-0.900533	0.022635
H279	H	0.283849	-0.747390	0.017668
H280	H	0.354945	-0.732754	0.051909
H281	H	0.710969	-0.684436	-0.006165
H282	H	-0.303725	0.071562	0.087197
O283	O	-0.434346	0.083638	0.078217
C284	C	-0.300466	0.077732	0.014036
C285	C	-0.345207	0.077239	0.064021
H286	H	-0.228384	0.072578	0.002545
H287	H	-0.340758	0.018028	-0.007899
H288	H	-0.299120	0.143027	0.010466
H289	H	-0.346561	0.011985	0.067633
H290	H	-0.304900	0.136987	0.085931
H291	H	-0.275840	0.035205	0.347100
H292	H	-0.047834	-0.232081	-0.882358
H293	H	-0.215904	0.060157	0.129977
O294	O	0.688556	-0.148085	-0.523996
C295	C	0.757982	0.002479	-0.484942
C296	C	0.713942	-0.096326	-0.484088
H297	H	0.778502	0.044357	-0.452676
H298	H	0.820407	0.006665	-0.515739
H299	H	0.707576	0.029572	-0.487035
H300	H	0.764279	-0.123482	-0.481980
H301	H	0.651502	-0.100454	-0.453296
O302	O	-0.193994	0.052652	0.195347
C303	C	-0.042372	0.123507	0.156449
C304	C	-0.140475	0.129846	0.180418
H305	H	0.000921	0.185901	0.144363
H306	H	-0.014612	0.118978	0.181138
H307	H	-0.040816	0.060907	0.126070
H308	H	-0.142110	0.192442	0.210794
H309	H	-0.168194	0.134326	0.155699
H310	H	0.182115	-0.525189	-0.530531
O311	O	0.238083	-0.216167	-0.033781
C312	C	0.237881	-0.073753	-0.035024
C313	C	0.292408	-0.127712	-0.033628
H314	H	0.281774	-0.002222	-0.034891
H315	H	0.215831	-0.107489	-0.067153
H316	H	0.175637	-0.071589	-0.004028
H317	H	0.354689	-0.129894	-0.064602
H318	H	0.314389	-0.093957	-0.001479
H319	H	0.012418	-0.684570	-0.156900
H320	H	-0.020027	-0.251971	-0.124027
O321	O	-0.578821	0.068242	0.394550
C322	C	-0.712667	0.074235	0.458747
C323	C	-0.667908	0.074798	0.408772
H324	H	-0.784695	0.079554	0.470263
H325	H	-0.714136	0.008910	0.462337
H326	H	-0.672273	0.133895	0.480648
H327	H	-0.708266	0.015183	0.386840
H328	H	-0.666426	0.140162	0.405217
O329	O	-0.039102	-0.142546	-0.232507
C330	C	-0.038508	-0.017815	-0.164731
C331	C	-0.035462	-0.116567	-0.187765
H332	H	-0.035586	0.003214	-0.128550
H333	H	0.021677	0.027158	-0.184574
H334	H	-0.103943	-0.010728	-0.164010
H335	H	0.029933	-0.123740	-0.188491
H336	H	-0.095692	-0.161493	-0.167914
H337	H	0.280077	-0.749342	-0.022791
O338	O	0.273493	-0.763425	-0.522507
C339	C	0.152295	-0.867143	-0.483433
C340	C	0.196407	-0.768377	-0.484350
H341	H	0.089975	-0.871177	-0.452580
H342	H	0.131593	-0.909083	-0.515646
H343	H	0.202708	-0.894283	-0.481379
H344	H	0.146042	-0.741156	-0.486387
H345	H	0.217128	-0.726499	-0.452137
O346	O	0.177141	-0.669141	-0.527545
C347	C	0.077592	-0.790304	-0.568103
C348	C	0.175618	-0.744273	-0.566230
H349	H	0.076330	-0.851045	-0.599382
H350	H	0.034494	-0.813348	-0.536317
H351	H	0.049384	-0.740548	-0.570012
H352	H	0.203907	-0.793978	-0.564336
H353	H	0.218653	-0.721211	-0.598015
H354	H	-0.226632	0.032105	-0.368836
H355	H	-0.023718	-0.530163	-0.918978
H356	H	-0.015393	-0.167196	-0.666497
H357	H	-0.023809	-0.160979	-0.735279
O358	O	-0.030648	-0.149928	-0.163999
C359	C	-0.030078	-0.025206	-0.096218
C360	C	-0.027012	-0.123953	-0.119256
H361	H	-0.027159	-0.004181	-0.060036
H362	H	0.030101	0.019777	-0.116057
H363	H	-0.095518	-0.018132	-0.095497
H364	H	0.038388	-0.131114	-0.119981
H365	H	-0.087237	-0.168889	-0.099409
H366	H	-0.709407	0.080425	0.385586
H367	H	-0.315470	0.043557	-0.411085
O368	O	-0.752815	0.091656	-0.376328
C369	C	-0.749605	0.196741	-0.409647
C370	C	-0.703431	0.175674	-0.385010
H371	H	-0.709708	0.264678	-0.416666
H372	H	-0.751974	0.142051	-0.443085
H373	H	-0.821366	0.199114	-0.387397
H374	H	-0.631651	0.173315	-0.407224
H375	H	-0.701134	0.230369	-0.351568
O376	O	-0.015740	-0.674113	-0.922434
C377	C	-0.015038	-0.809651	-0.984825
C378	C	-0.011947	-0.763651	-0.935497
H379	H	-0.011953	-0.882044	-0.995405
H380	H	-0.080496	-0.809444	-0.987511
H381	H	0.045118	-0.771489	-1.008088
H382	H	-0.072057	-0.801776	-0.912204
H383	H	0.053550	-0.763847	-0.932848
O384	O	0.168189	-0.531853	-0.030814
C385	C	0.045279	-0.667447	-0.031447
C386	C	0.143331	-0.621448	-0.029613
H387	H	0.025157	-0.739898	-0.030486
H388	H	-0.001844	-0.629416	-0.001094
H389	H	0.039955	-0.667093	-0.064156
H390	H	0.148743	-0.621791	0.003076
H391	H	0.190408	-0.659493	-0.059988
O392	O	-0.829507	0.071409	-0.219312
C393	C	-0.929001	0.155290	-0.157391
C394	C	-0.831008	0.148766	-0.181697
H395	H	-0.930250	0.217819	-0.126969
H396	H	-0.957180	0.159991	-0.181866
H397	H	-0.972134	0.092844	-0.145328
H398	H	-0.787804	0.211195	-0.193761
H399	H	-0.802902	0.144022	-0.157206
H400	H	-0.011621	-0.389765	-0.121028
O401	O	0.794161	-0.379625	-0.015912
C402	C	0.917116	-0.244070	-0.015337
C403	C	0.819079	-0.290079	-0.017196
H404	H	0.937298	-0.171670	-0.016384
H405	H	0.922489	-0.244296	0.017387
H406	H	0.964163	-0.282212	-0.045673
H407	H	0.771972	-0.251973	0.013117
H408	H	0.813779	-0.289863	-0.049939
O409	O	-0.004930	-0.247541	-0.615589
C410	C	-0.081001	-0.173115	-0.539488
C411	C	-0.083994	-0.219099	-0.588831
H412	H	-0.144907	-0.150090	-0.517843
H413	H	-0.076551	-0.222810	-0.525666
H414	H	-0.019286	-0.112341	-0.538435
H415	H	-0.145703	-0.279868	-0.589923
H416	H	-0.088396	-0.169345	-0.602632
H417	H	0.245727	-0.224039	-0.533582
H418	H	-0.038841	-0.524079	-0.420431
O419	O	-0.811268	0.092690	0.346146
C420	C	-0.943522	0.104811	0.339534
C421	C	-0.845427	0.098438	0.315583
H422	H	-0.971163	0.109479	0.314837
H423	H	-0.986913	0.042380	0.351573
H424	H	-0.945088	0.167363	0.369939
H425	H	-0.843774	0.035925	0.285161
H426	H	-0.802079	0.160914	0.303577
O427	O	0.785138	-0.242369	-0.019194
C428	C	0.908090	-0.106812	-0.018619
C429	C	0.810054	-0.152824	-0.020479
H430	H	0.928271	-0.034413	-0.019667
H431	H	0.913463	-0.107036	0.014106
H432	H	0.955139	-0.144954	-0.048954
H433	H	0.762945	-0.114718	0.009834
H434	H	0.804754	-0.152610	-0.053222
O435	O	-0.820512	0.064516	-0.150808
C436	C	-0.920073	0.148294	-0.088865
C437	C	-0.822056	0.141850	-0.113180
H438	H	-0.921356	0.210803	-0.058432
H439	H	-0.948290	0.152978	-0.113328
H440	H	-0.963150	0.085822	-0.076815
H441	H	-0.778908	0.204304	-0.125231
H442	H	-0.793911	0.137122	-0.088700
O443	O	-0.748604	0.103549	0.119403
C444	C	-0.830609	0.188003	0.114579
C445	C	-0.776073	0.183650	0.140791
H446	H	-0.852849	0.252750	0.131866
H447	H	-0.786673	0.186858	0.078254
H448	H	-0.892737	0.127581	0.114228
H449	H	-0.713942	0.244060	0.141178
H450	H	-0.820072	0.184752	0.177102
O451	O	-0.030729	-0.668371	-0.424503
C452	C	0.045317	-0.741911	-0.500816
C453	C	0.048386	-0.696607	-0.451462
H454	H	0.109282	-0.764736	-0.522628
H455	H	-0.016340	-0.802717	-0.502058
H456	H	0.040761	-0.691756	-0.514305
H457	H	0.052975	-0.746693	-0.437942
H458	H	0.110033	-0.635787	-0.450249
H459	H	-0.011748	-0.757184	-0.305606
H460	H	-0.005085	-0.754331	-0.871556
H461	H	-0.805083	0.098565	0.274011
H462	H	0.417564	-0.755580	-0.518528
H463	H	-0.020209	-0.749804	-0.374113
O464	O	0.717250	-0.691678	-0.504529
C465	C	0.714020	-0.758086	-0.451879
C466	C	0.667843	-0.707645	-0.461840
H467	H	0.674104	-0.770994	-0.417361
H468	H	0.716419	-0.825050	-0.479233
H469	H	0.785769	-0.715494	-0.451657
H470	H	0.596075	-0.750162	-0.462054
H471	H	0.665515	-0.640674	-0.434484
H472	H	0.544602	-0.156012	-0.528109
H473	H	0.780052	-0.386407	-0.516111
O474	O	0.003642	-0.384678	-0.612031
C475	C	0.003076	-0.249097	-0.549664
C476	C	0.000019	-0.295089	-0.598997
H477	H	0.000167	-0.176652	-0.539114
H478	H	-0.057113	-0.287143	-0.526360
H479	H	0.068508	-0.249437	-0.547009
H480	H	-0.065373	-0.294761	-0.601697
H481	H	0.060252	-0.257030	-0.622279
H482	H	0.013347	-0.692513	-0.652885
O483	O	-0.273486	0.020146	-0.145156
C484	C	-0.262718	-0.061410	-0.103263
C485	C	-0.317255	-0.057052	-0.129473
H486	H	-0.298094	-0.123809	-0.090568
H487	H	-0.191893	-0.064943	-0.126660
H488	H	-0.257823	0.001345	-0.073127
H489	H	-0.322221	-0.119791	-0.159610
H490	H	-0.388049	-0.053474	-0.106045
H491	H	0.771070	-0.249160	-0.519423
H492	H	0.003321	-0.760550	-0.802778
H493	H	-0.217624	0.025258	-0.300336
O494	O	-0.724094	0.051747	-0.104950
C495	C	-0.845339	-0.023056	-0.051438
C496	C	-0.801269	-0.022392	-0.101415
H497	H	-0.907753	-0.082980	-0.048562
H498	H	-0.795002	-0.028627	-0.038536
H499	H	-0.865919	0.042000	-0.030210
H500	H	-0.780689	-0.087433	-0.122678
H501	H	-0.851634	-0.016773	-0.114280
H502	H	-0.453130	0.055597	-0.412328
H503	H	-0.580066	0.039960	-0.110823
H504	H	0.191224	-0.662427	-0.027294
H505	H	0.682288	-0.162154	-0.023969
H506	H	0.544632	-0.155941	-0.028119
