data_functionalizedCrystal
_audit_creation_method	'MofGen! by Chris Wilmer'
_symmetry_space_group_name_H-M	'P1'
_symmetry_Int_Tables_number	1
_symmetry_cell_setting	triclinic
loop_
_symmetry_equiv_pos_as_xyz
  x,y,z
_cell_length_a	11.026607
_cell_length_b	14.421503
_cell_length_c	11.026607
_cell_angle_alpha	89.992800
_cell_angle_beta	108.586017
_cell_angle_gamma	90.008865
loop_
_atom_site_label
_atom_site_type_symbol
_atom_site_fract_x
_atom_site_fract_y
_atom_site_fract_z
O1	O	1.726737	0.077109	0.533608
O2	O	1.360157	0.077111	0.472844
O3	O	1.513066	0.077107	0.319936
O4	O	1.573829	0.077113	0.686516
O5	O	1.513039	-0.077117	0.319958
O6	O	1.360131	-0.077113	0.472866
O7	O	1.726711	-0.077114	0.533630
Cu8	Cu	1.543419	-0.091195	0.503250
Cu9	Cu	1.543450	0.091192	0.503224
O10	O	1.573803	-0.077110	0.686538
C11	C	1.312485	-0.000001	0.461645
C12	C	1.170471	-0.000000	0.428228
N13	N	1.543406	-0.219476	0.503270
C14	C	1.116821	0.000002	0.520498
C15	C	0.970043	0.000003	0.485962
C16	C	1.472677	-0.469128	0.573930
C17	C	1.593227	-0.530931	0.623818
C18	C	1.543431	-0.408638	0.503246
C19	C	1.422916	-0.530929	0.453395
C20	C	1.543445	-0.591359	0.503224
C21	C	1.664052	-0.469080	0.553203
C22	C	1.493654	-0.469072	0.382714
C23	C	1.614277	-0.530847	0.432571
C24	C	1.543422	-0.303377	0.503262
C25	C	1.543467	-0.696618	0.503210
C26	C	1.774384	-0.000000	0.544828
C27	C	1.916398	0.000005	0.578245
C28	C	1.501843	-0.000004	0.272287
C29	C	1.468426	-0.000000	0.130273
N30	N	1.543470	0.219473	0.503196
C31	C	1.560695	0.000001	0.076624
C32	C	1.526160	0.000004	-0.070155
C33	C	1.585026	0.000003	0.734187
C34	C	1.618443	0.000005	0.876200
H35	H	1.179555	-0.000001	0.625061
Cl36	Cl	0.873202	-0.000007	0.324513
Cl37	Cl	1.821488	-0.427317	0.618467
H38	H	0.979125	0.000001	0.682816
Cl39	Cl	1.706789	-0.572432	0.340289
Cl40	Cl	1.428588	-0.427085	0.225385
Cl41	Cl	1.073626	-0.000009	0.266786
H42	H	1.320993	-0.558099	0.411244
Cl43	Cl	1.722138	0.000006	0.173469
H44	H	1.412934	-0.442029	0.633784
Cl45	Cl	1.364710	0.000014	-0.166995
H46	H	1.723013	0.000074	-0.061072
H47	H	1.363863	0.000006	0.067540
H48	H	1.635342	-0.558102	0.725742
